/*---------------------------------------------------------------------------*\
  =========                 |
  \\      /  F ield         | OpenFOAM: The Open Source CFD Toolbox
   \\    /   O peration     | Website:  https://openfoam.org
    \\  /    A nd           | Version:  9
     \\/     M anipulation  |
\*---------------------------------------------------------------------------*/
Build  : 9-c96968adf6d8
Exec   : IBMFoam
Date   : Jul 13 2025
Time   : 17:33:01
Host   : "DESKTOP-UH56G7B"
PID    : 166903
I/O    : uncollated
Case   : /home/winter/OpenFOAM/winter-9/mysol/IBM/flowOverCylinder2D
nProcs : 1
sigFpe : Enabling floating point exception trapping (FOAM_SIGFPE).
fileModificationChecking : Monitoring run-time modified files using timeStampMaster (fileModificationSkew 10)
allowSystemOperations : Allowing user-supplied system call operations

// * * * * * * * * * * * * * * * * * * * * * * * * * * * * * * * * * * * * * //
Create time

Create mesh for time = 0.0001

Selecting dynamicFvMesh dynamicRefineFvMesh

PIMPLE: No convergence criteria found


PIMPLE: Operating solver in transient mode with 1 outer corrector
PIMPLE: Operating solver in PISO mode


Reading transportProperties

Reading field p

Reading field U

Reading/calculating face flux field phi

Reading/calculating face velocity Uf

Courant Number mean: 0.0052061 max: 0.324289
Reading rho1,rho2 and g for the two-phase problem
  rhoFluid = 1000
    rhoAir = 1.225         g = (0 -9.81 0)

Cartesian grid size :  h = 0.0025
Cartesian volumetric: dV = 6.25e-06

Found 1 IB objects!!!
------------------
Create 2D particle
------------------
  Ideal number of Lagrangian points : 376.991
  Actual number of Lagrangian points: 377
  R = 0.15; C = (0 0 0.05); dVL = 6.24985e-06
  Motions: N/A

cellToLpoint, span, pointI 
1.50987, 0.005, (0.15 0 0.05)
1.49482, 0.005, (0.15 0 0.05)
1.4799, 0.005, (0.15 0 0.05)
1.46509, 0.005, (0.15 0 0.05)
1.45041, 0.005, (0.15 0 0.05)
1.43586, 0.005, (0.15 0 0.05)
1.42144, 0.005, (0.15 0 0.05)
1.40716, 0.005, (0.15 0 0.05)
1.39302, 0.005, (0.15 0 0.05)
1.37902, 0.005, (0.15 0 0.05)
1.36517, 0.005, (0.15 0 0.05)
1.35148, 0.005, (0.15 0 0.05)
1.33795, 0.005, (0.15 0 0.05)
1.32458, 0.005, (0.15 0 0.05)
1.31137, 0.005, (0.15 0 0.05)
1.29835, 0.005, (0.15 0 0.05)
1.2855, 0.005, (0.15 0 0.05)
1.27283, 0.005, (0.15 0 0.05)
1.26036, 0.005, (0.15 0 0.05)
1.24808, 0.005, (0.15 0 0.05)
1.236, 0.005, (0.15 0 0.05)
1.22413, 0.005, (0.15 0 0.05)
1.21248, 0.005, (0.15 0 0.05)
1.20104, 0.005, (0.15 0 0.05)
1.18983, 0.005, (0.15 0 0.05)
1.17886, 0.005, (0.15 0 0.05)
1.16812, 0.005, (0.15 0 0.05)
1.15763, 0.005, (0.15 0 0.05)
1.14739, 0.005, (0.15 0 0.05)
1.13741, 0.005, (0.15 0 0.05)
1.1277, 0.005, (0.15 0 0.05)
1.11826, 0.005, (0.15 0 0.05)
1.1091, 0.005, (0.15 0 0.05)
1.10023, 0.005, (0.15 0 0.05)
1.09165, 0.005, (0.15 0 0.05)
1.08337, 0.005, (0.15 0 0.05)
1.07541, 0.005, (0.15 0 0.05)
1.06775, 0.005, (0.15 0 0.05)
1.06042, 0.005, (0.15 0 0.05)
1.05342, 0.005, (0.15 0 0.05)
1.04676, 0.005, (0.15 0 0.05)
1.04043, 0.005, (0.15 0 0.05)
1.03446, 0.005, (0.15 0 0.05)
1.02883, 0.005, (0.15 0 0.05)
1.02357, 0.005, (0.15 0 0.05)
1.01868, 0.005, (0.15 0 0.05)
1.01415, 0.005, (0.15 0 0.05)
1.01, 0.005, (0.15 0 0.05)
1.00623, 0.005, (0.15 0 0.05)
1.00285, 0.005, (0.15 0 0.05)
0.99985, 0.005, (0.15 0 0.05)
0.997246, 0.005, (0.15 0 0.05)
0.995038, 0.005, (0.15 0 0.05)
0.993227, 0.005, (0.15 0 0.05)
0.991817, 0.005, (0.15 0 0.05)
0.990808, 0.005, (0.15 0 0.05)
0.990202, 0.005, (0.15 0 0.05)
0.99, 0.005, (0.15 0 0.05)
0.990202, 0.005, (0.15 0 0.05)
0.990808, 0.005, (0.15 0 0.05)
0.991817, 0.005, (0.15 0 0.05)
0.993227, 0.005, (0.15 0 0.05)
0.995038, 0.005, (0.15 0 0.05)
0.997246, 0.005, (0.15 0 0.05)
0.99985, 0.005, (0.15 0 0.05)
1.00285, 0.005, (0.15 0 0.05)
1.00623, 0.005, (0.15 0 0.05)
1.01, 0.005, (0.15 0 0.05)
1.01415, 0.005, (0.15 0 0.05)
1.01868, 0.005, (0.15 0 0.05)
1.02357, 0.005, (0.15 0 0.05)
1.02883, 0.005, (0.15 0 0.05)
1.03446, 0.005, (0.15 0 0.05)
1.04043, 0.005, (0.15 0 0.05)
1.04676, 0.005, (0.15 0 0.05)
1.05342, 0.005, (0.15 0 0.05)
1.06042, 0.005, (0.15 0 0.05)
1.06775, 0.005, (0.15 0 0.05)
1.07541, 0.005, (0.15 0 0.05)
1.08337, 0.005, (0.15 0 0.05)
1.09165, 0.005, (0.15 0 0.05)
1.10023, 0.005, (0.15 0 0.05)
1.1091, 0.005, (0.15 0 0.05)
1.11826, 0.005, (0.15 0 0.05)
1.1277, 0.005, (0.15 0 0.05)
1.13741, 0.005, (0.15 0 0.05)
1.14739, 0.005, (0.15 0 0.05)
1.15763, 0.005, (0.15 0 0.05)
1.16812, 0.005, (0.15 0 0.05)
1.17886, 0.005, (0.15 0 0.05)
1.18983, 0.005, (0.15 0 0.05)
1.20104, 0.005, (0.15 0 0.05)
1.21248, 0.005, (0.15 0 0.05)
1.22413, 0.005, (0.15 0 0.05)
1.236, 0.005, (0.15 0 0.05)
1.24808, 0.005, (0.15 0 0.05)
1.26036, 0.005, (0.15 0 0.05)
1.27283, 0.005, (0.15 0 0.05)
1.2855, 0.005, (0.15 0 0.05)
1.29835, 0.005, (0.15 0 0.05)
1.31137, 0.005, (0.15 0 0.05)
1.32458, 0.005, (0.15 0 0.05)
1.33795, 0.005, (0.15 0 0.05)
1.35148, 0.005, (0.15 0 0.05)
1.36517, 0.005, (0.15 0 0.05)
1.37902, 0.005, (0.15 0 0.05)
1.39302, 0.005, (0.15 0 0.05)
1.40716, 0.005, (0.15 0 0.05)
1.42144, 0.005, (0.15 0 0.05)
1.43586, 0.005, (0.15 0 0.05)
1.45041, 0.005, (0.15 0 0.05)
1.46509, 0.005, (0.15 0 0.05)
1.4799, 0.005, (0.15 0 0.05)
1.49482, 0.005, (0.15 0 0.05)
1.50987, 0.005, (0.15 0 0.05)
1.52502, 0.005, (0.15 0 0.05)
1.54029, 0.005, (0.15 0 0.05)
1.55567, 0.005, (0.15 0 0.05)
1.57115, 0.005, (0.15 0 0.05)
1.58673, 0.005, (0.15 0 0.05)
1.6024, 0.005, (0.15 0 0.05)
1.61818, 0.005, (0.15 0 0.05)
1.63404, 0.005, (0.15 0 0.05)
1.65, 0.005, (0.15 0 0.05)
1.66604, 0.005, (0.15 0 0.05)
1.68217, 0.005, (0.15 0 0.05)
1.69838, 0.005, (0.15 0 0.05)
1.71467, 0.005, (0.15 0 0.05)
1.73104, 0.005, (0.15 0 0.05)
1.74748, 0.005, (0.15 0 0.05)
1.764, 0.005, (0.15 0 0.05)
1.78059, 0.005, (0.15 0 0.05)
1.79725, 0.005, (0.15 0 0.05)
1.81397, 0.005, (0.15 0 0.05)
1.83076, 0.005, (0.15 0 0.05)
1.84762, 0.005, (0.15 0 0.05)
1.86454, 0.005, (0.15 0 0.05)
1.88152, 0.005, (0.15 0 0.05)
1.89855, 0.005, (0.15 0 0.05)
1.91565, 0.005, (0.15 0 0.05)
1.9328, 0.005, (0.15 0 0.05)
1.95, 0.005, (0.15 0 0.05)
1.96726, 0.005, (0.15 0 0.05)
1.98457, 0.005, (0.15 0 0.05)
2.00192, 0.005, (0.15 0 0.05)
2.01933, 0.005, (0.15 0 0.05)
2.03679, 0.005, (0.15 0 0.05)
2.05429, 0.005, (0.15 0 0.05)
2.07183, 0.005, (0.15 0 0.05)
2.08943, 0.005, (0.15 0 0.05)
1.49683, 0.005, (0.15 0 0.05)
1.48165, 0.005, (0.15 0 0.05)
1.46659, 0.005, (0.15 0 0.05)
1.45165, 0.005, (0.15 0 0.05)
1.43684, 0.005, (0.15 0 0.05)
1.42215, 0.005, (0.15 0 0.05)
1.40759, 0.005, (0.15 0 0.05)
1.39316, 0.005, (0.15 0 0.05)
1.37888, 0.005, (0.15 0 0.05)
1.36473, 0.005, (0.15 0 0.05)
1.35074, 0.005, (0.15 0 0.05)
1.3369, 0.005, (0.15 0 0.05)
1.32322, 0.005, (0.15 0 0.05)
1.30969, 0.005, (0.15 0 0.05)
1.29634, 0.005, (0.15 0 0.05)
1.28316, 0.005, (0.15 0 0.05)
1.27016, 0.005, (0.15 0 0.05)
1.25734, 0.005, (0.15 0 0.05)
1.24471, 0.005, (0.15 0 0.05)
1.23227, 0.005, (0.15 0 0.05)
1.22004, 0.005, (0.15 0 0.05)
1.20801, 0.005, (0.15 0 0.05)
1.1962, 0.005, (0.15 0 0.05)
1.18461, 0.005, (0.15 0 0.05)
1.17324, 0.005, (0.15 0 0.05)
1.16211, 0.005, (0.15 0 0.05)
1.15122, 0.005, (0.15 0 0.05)
1.14057, 0.005, (0.15 0 0.05)
1.13018, 0.005, (0.15 0 0.05)
1.12004, 0.005, (0.15 0 0.05)
1.11018, 0.005, (0.15 0 0.05)
1.10059, 0.005, (0.15 0 0.05)
1.09128, 0.005, (0.15 0 0.05)
1.08227, 0.005, (0.15 0 0.05)
1.07355, 0.005, (0.15 0 0.05)
1.06513, 0.005, (0.15 0 0.05)
1.05702, 0.005, (0.15 0 0.05)
1.04924, 0.005, (0.15 0 0.05)
1.04178, 0.005, (0.15 0 0.05)
1.03465, 0.005, (0.15 0 0.05)
1.02786, 0.005, (0.15 0 0.05)
1.02142, 0.005, (0.15 0 0.05)
1.01533, 0.005, (0.15 0 0.05)
1.0096, 0.005, (0.15 0 0.05)
1.00424, 0.005, (0.15 0 0.05)
0.99925, 0.005, (0.15 0 0.05)
0.994636, 0.005, (0.15 0 0.05)
0.990404, 0.005, (0.15 0 0.05)
0.98656, 0.005, (0.15 0 0.05)
0.983107, 0.005, (0.15 0 0.05)
0.980051, 0.005, (0.15 0 0.05)
0.977394, 0.005, (0.15 0 0.05)
0.975141, 0.005, (0.15 0 0.05)
0.973293, 0.005, (0.15 0 0.05)
0.971854, 0.005, (0.15 0 0.05)
0.970824, 0.005, (0.15 0 0.05)
0.970206, 0.005, (0.15 0 0.05)
0.97, 0.005, (0.15 0 0.05)
0.970206, 0.005, (0.15 0 0.05)
0.970824, 0.005, (0.15 0 0.05)
0.971854, 0.005, (0.15 0 0.05)
0.973293, 0.005, (0.15 0 0.05)
0.975141, 0.005, (0.15 0 0.05)
0.977394, 0.005, (0.15 0 0.05)
0.980051, 0.005, (0.15 0 0.05)
0.983107, 0.005, (0.15 0 0.05)
0.98656, 0.005, (0.15 0 0.05)
0.990404, 0.005, (0.15 0 0.05)
0.994636, 0.005, (0.15 0 0.05)
0.99925, 0.005, (0.15 0 0.05)
1.00424, 0.005, (0.15 0 0.05)
1.0096, 0.005, (0.15 0 0.05)
1.01533, 0.005, (0.15 0 0.05)
1.02142, 0.005, (0.15 0 0.05)
1.02786, 0.005, (0.15 0 0.05)
1.03465, 0.005, (0.15 0 0.05)
1.04178, 0.005, (0.15 0 0.05)
1.04924, 0.005, (0.15 0 0.05)
1.05702, 0.005, (0.15 0 0.05)
1.06513, 0.005, (0.15 0 0.05)
1.07355, 0.005, (0.15 0 0.05)
1.08227, 0.005, (0.15 0 0.05)
1.09128, 0.005, (0.15 0 0.05)
1.10059, 0.005, (0.15 0 0.05)
1.11018, 0.005, (0.15 0 0.05)
1.12004, 0.005, (0.15 0 0.05)
1.13018, 0.005, (0.15 0 0.05)
1.14057, 0.005, (0.15 0 0.05)
1.15122, 0.005, (0.15 0 0.05)
1.16211, 0.005, (0.15 0 0.05)
1.17324, 0.005, (0.15 0 0.05)
1.18461, 0.005, (0.15 0 0.05)
1.1962, 0.005, (0.15 0 0.05)
1.20801, 0.005, (0.15 0 0.05)
1.22004, 0.005, (0.15 0 0.05)
1.23227, 0.005, (0.15 0 0.05)
1.24471, 0.005, (0.15 0 0.05)
1.25734, 0.005, (0.15 0 0.05)
1.27016, 0.005, (0.15 0 0.05)
1.28316, 0.005, (0.15 0 0.05)
1.29634, 0.005, (0.15 0 0.05)
1.30969, 0.005, (0.15 0 0.05)
1.32322, 0.005, (0.15 0 0.05)
1.3369, 0.005, (0.15 0 0.05)
1.35074, 0.005, (0.15 0 0.05)
1.36473, 0.005, (0.15 0 0.05)
1.37888, 0.005, (0.15 0 0.05)
1.39316, 0.005, (0.15 0 0.05)
1.40759, 0.005, (0.15 0 0.05)
1.42215, 0.005, (0.15 0 0.05)
1.43684, 0.005, (0.15 0 0.05)
1.45165, 0.005, (0.15 0 0.05)
1.46659, 0.005, (0.15 0 0.05)
1.48165, 0.005, (0.15 0 0.05)
1.49683, 0.005, (0.15 0 0.05)
1.51212, 0.005, (0.15 0 0.05)
1.52751, 0.005, (0.15 0 0.05)
1.54302, 0.005, (0.15 0 0.05)
1.55862, 0.005, (0.15 0 0.05)
1.57433, 0.005, (0.15 0 0.05)
1.59013, 0.005, (0.15 0 0.05)
1.60602, 0.005, (0.15 0 0.05)
1.622, 0.005, (0.15 0 0.05)
1.63808, 0.005, (0.15 0 0.05)
1.65424, 0.005, (0.15 0 0.05)
1.67048, 0.005, (0.15 0 0.05)
1.6868, 0.005, (0.15 0 0.05)
1.7032, 0.005, (0.15 0 0.05)
1.71968, 0.005, (0.15 0 0.05)
1.73623, 0.005, (0.15 0 0.05)
1.75285, 0.005, (0.15 0 0.05)
1.76955, 0.005, (0.15 0 0.05)
1.78631, 0.005, (0.15 0 0.05)
1.80314, 0.005, (0.15 0 0.05)
1.82003, 0.005, (0.15 0 0.05)
1.83698, 0.005, (0.15 0 0.05)
1.854, 0.005, (0.15 0 0.05)
1.87107, 0.005, (0.15 0 0.05)
1.8882, 0.005, (0.15 0 0.05)
1.90539, 0.005, (0.15 0 0.05)
1.92263, 0.005, (0.15 0 0.05)
1.93992, 0.005, (0.15 0 0.05)
1.95727, 0.005, (0.15 0 0.05)
1.97466, 0.005, (0.15 0 0.05)
1.99211, 0.005, (0.15 0 0.05)
2.0096, 0.005, (0.15 0 0.05)
2.02714, 0.005, (0.15 0 0.05)
2.04472, 0.005, (0.15 0 0.05)
2.06235, 0.005, (0.15 0 0.05)
2.08002, 0.005, (0.15 0 0.05)
1.48395, 0.005, (0.15 0 0.05)
1.46864, 0.005, (0.15 0 0.05)
1.45344, 0.005, (0.15 0 0.05)
1.43837, 0.005, (0.15 0 0.05)
1.42341, 0.005, (0.15 0 0.05)
1.40858, 0.005, (0.15 0 0.05)
1.39388, 0.005, (0.15 0 0.05)
1.37931, 0.005, (0.15 0 0.05)
1.36488, 0.005, (0.15 0 0.05)
1.35059, 0.005, (0.15 0 0.05)
1.33645, 0.005, (0.15 0 0.05)
1.32246, 0.005, (0.15 0 0.05)
1.30863, 0.005, (0.15 0 0.05)
1.29495, 0.005, (0.15 0 0.05)
1.28144, 0.005, (0.15 0 0.05)
1.26811, 0.005, (0.15 0 0.05)
1.25495, 0.005, (0.15 0 0.05)
1.24197, 0.005, (0.15 0 0.05)
1.22919, 0.005, (0.15 0 0.05)
1.21659, 0.005, (0.15 0 0.05)
1.2042, 0.005, (0.15 0 0.05)
1.19202, 0.005, (0.15 0 0.05)
1.18004, 0.005, (0.15 0 0.05)
1.16829, 0.005, (0.15 0 0.05)
1.15676, 0.005, (0.15 0 0.05)
1.14547, 0.005, (0.15 0 0.05)
1.13442, 0.005, (0.15 0 0.05)
1.12361, 0.005, (0.15 0 0.05)
1.11306, 0.005, (0.15 0 0.05)
1.10277, 0.005, (0.15 0 0.05)
1.09275, 0.005, (0.15 0 0.05)
1.08301, 0.005, (0.15 0 0.05)
1.07355, 0.005, (0.15 0 0.05)
1.06438, 0.005, (0.15 0 0.05)
1.05551, 0.005, (0.15 0 0.05)
1.04695, 0.005, (0.15 0 0.05)
1.0387, 0.005, (0.15 0 0.05)
1.03078, 0.005, (0.15 0 0.05)
1.02318, 0.005, (0.15 0 0.05)
1.01592, 0.005, (0.15 0 0.05)
1.00901, 0.005, (0.15 0 0.05)
1.00245, 0.005, (0.15 0 0.05)
0.996243, 0.005, (0.15 0 0.05)
0.990404, 0.005, (0.15 0 0.05)
0.984937, 0.005, (0.15 0 0.05)
0.979847, 0.005, (0.15 0 0.05)
0.975141, 0.005, (0.15 0 0.05)
0.970824, 0.005, (0.15 0 0.05)
0.966902, 0.005, (0.15 0 0.05)
0.963379, 0.005, (0.15 0 0.05)
0.96026, 0.005, (0.15 0 0.05)
0.957549, 0.005, (0.15 0 0.05)
0.955249, 0.005, (0.15 0 0.05)
0.953362, 0.005, (0.15 0 0.05)
0.951893, 0.005, (0.15 0 0.05)
0.950842, 0.005, (0.15 0 0.05)
0.950211, 0.005, (0.15 0 0.05)
0.95, 0.005, (0.15 0 0.05)
0.950211, 0.005, (0.15 0 0.05)
0.950842, 0.005, (0.15 0 0.05)
0.951893, 0.005, (0.15 0 0.05)
0.953362, 0.005, (0.15 0 0.05)
0.955249, 0.005, (0.15 0 0.05)
0.957549, 0.005, (0.15 0 0.05)
0.96026, 0.005, (0.15 0 0.05)
0.963379, 0.005, (0.15 0 0.05)
0.966902, 0.005, (0.15 0 0.05)
0.970824, 0.005, (0.15 0 0.05)
0.975141, 0.005, (0.15 0 0.05)
0.979847, 0.005, (0.15 0 0.05)
0.984937, 0.005, (0.15 0 0.05)
0.990404, 0.005, (0.15 0 0.05)
0.996243, 0.005, (0.15 0 0.05)
1.00245, 0.005, (0.15 0 0.05)
1.00901, 0.005, (0.15 0 0.05)
1.01592, 0.005, (0.15 0 0.05)
1.02318, 0.005, (0.15 0 0.05)
1.03078, 0.005, (0.15 0 0.05)
1.0387, 0.005, (0.15 0 0.05)
1.04695, 0.005, (0.15 0 0.05)
1.05551, 0.005, (0.15 0 0.05)
1.06438, 0.005, (0.15 0 0.05)
1.07355, 0.005, (0.15 0 0.05)
1.08301, 0.005, (0.15 0 0.05)
1.09275, 0.005, (0.15 0 0.05)
1.10277, 0.005, (0.15 0 0.05)
1.11306, 0.005, (0.15 0 0.05)
1.12361, 0.005, (0.15 0 0.05)
1.13442, 0.005, (0.15 0 0.05)
1.14547, 0.005, (0.15 0 0.05)
1.15676, 0.005, (0.15 0 0.05)
1.16829, 0.005, (0.15 0 0.05)
1.18004, 0.005, (0.15 0 0.05)
1.19202, 0.005, (0.15 0 0.05)
1.2042, 0.005, (0.15 0 0.05)
1.21659, 0.005, (0.15 0 0.05)
1.22919, 0.005, (0.15 0 0.05)
1.24197, 0.005, (0.15 0 0.05)
1.25495, 0.005, (0.15 0 0.05)
1.26811, 0.005, (0.15 0 0.05)
1.28144, 0.005, (0.15 0 0.05)
1.29495, 0.005, (0.15 0 0.05)
1.30863, 0.005, (0.15 0 0.05)
1.32246, 0.005, (0.15 0 0.05)
1.33645, 0.005, (0.15 0 0.05)
1.35059, 0.005, (0.15 0 0.05)
1.36488, 0.005, (0.15 0 0.05)
1.37931, 0.005, (0.15 0 0.05)
1.39388, 0.005, (0.15 0 0.05)
1.40858, 0.005, (0.15 0 0.05)
1.42341, 0.005, (0.15 0 0.05)
1.43837, 0.005, (0.15 0 0.05)
1.45344, 0.005, (0.15 0 0.05)
1.46864, 0.005, (0.15 0 0.05)
1.48395, 0.005, (0.15 0 0.05)
1.49937, 0.005, (0.15 0 0.05)
1.51489, 0.005, (0.15 0 0.05)
1.53052, 0.005, (0.15 0 0.05)
1.54625, 0.005, (0.15 0 0.05)
1.56208, 0.005, (0.15 0 0.05)
1.57801, 0.005, (0.15 0 0.05)
1.59402, 0.005, (0.15 0 0.05)
1.61012, 0.005, (0.15 0 0.05)
1.62631, 0.005, (0.15 0 0.05)
1.64259, 0.005, (0.15 0 0.05)
1.65895, 0.005, (0.15 0 0.05)
1.67538, 0.005, (0.15 0 0.05)
1.69189, 0.005, (0.15 0 0.05)
1.70848, 0.005, (0.15 0 0.05)
1.72514, 0.005, (0.15 0 0.05)
1.74187, 0.005, (0.15 0 0.05)
1.75866, 0.005, (0.15 0 0.05)
1.77553, 0.005, (0.15 0 0.05)
1.79246, 0.005, (0.15 0 0.05)
1.80945, 0.005, (0.15 0 0.05)
1.8265, 0.005, (0.15 0 0.05)
1.84361, 0.005, (0.15 0 0.05)
1.86078, 0.005, (0.15 0 0.05)
1.878, 0.005, (0.15 0 0.05)
1.89528, 0.005, (0.15 0 0.05)
1.91262, 0.005, (0.15 0 0.05)
1.93, 0.005, (0.15 0 0.05)
1.94743, 0.005, (0.15 0 0.05)
1.96492, 0.005, (0.15 0 0.05)
1.98245, 0.005, (0.15 0 0.05)
2.00002, 0.005, (0.15 0 0.05)
2.01765, 0.005, (0.15 0 0.05)
2.03531, 0.005, (0.15 0 0.05)
2.05302, 0.005, (0.15 0 0.05)
2.07077, 0.005, (0.15 0 0.05)
1.47122, 0.005, (0.15 0 0.05)
1.45578, 0.005, (0.15 0 0.05)
1.44045, 0.005, (0.15 0 0.05)
1.42524, 0.005, (0.15 0 0.05)
1.41014, 0.005, (0.15 0 0.05)
1.39517, 0.005, (0.15 0 0.05)
1.38033, 0.005, (0.15 0 0.05)
1.36561, 0.005, (0.15 0 0.05)
1.35104, 0.005, (0.15 0 0.05)
1.3366, 0.005, (0.15 0 0.05)
1.32231, 0.005, (0.15 0 0.05)
1.30817, 0.005, (0.15 0 0.05)
1.29418, 0.005, (0.15 0 0.05)
1.28035, 0.005, (0.15 0 0.05)
1.26669, 0.005, (0.15 0 0.05)
1.2532, 0.005, (0.15 0 0.05)
1.23988, 0.005, (0.15 0 0.05)
1.22674, 0.005, (0.15 0 0.05)
1.2138, 0.005, (0.15 0 0.05)
1.20104, 0.005, (0.15 0 0.05)
1.18849, 0.005, (0.15 0 0.05)
1.17614, 0.005, (0.15 0 0.05)
1.164, 0.005, (0.15 0 0.05)
1.15209, 0.005, (0.15 0 0.05)
1.14039, 0.005, (0.15 0 0.05)
1.12894, 0.005, (0.15 0 0.05)
1.11772, 0.005, (0.15 0 0.05)
1.10675, 0.005, (0.15 0 0.05)
1.09604, 0.005, (0.15 0 0.05)
1.08559, 0.005, (0.15 0 0.05)
1.07541, 0.005, (0.15 0 0.05)
1.0655, 0.005, (0.15 0 0.05)
1.05589, 0.005, (0.15 0 0.05)
1.04657, 0.005, (0.15 0 0.05)
1.03755, 0.005, (0.15 0 0.05)
1.02883, 0.005, (0.15 0 0.05)
1.02044, 0.005, (0.15 0 0.05)
1.01237, 0.005, (0.15 0 0.05)
1.00464, 0.005, (0.15 0 0.05)
0.997246, 0.005, (0.15 0 0.05)
0.990202, 0.005, (0.15 0 0.05)
0.983514, 0.005, (0.15 0 0.05)
0.97719, 0.005, (0.15 0 0.05)
0.971236, 0.005, (0.15 0 0.05)
0.96566, 0.005, (0.15 0 0.05)
0.960469, 0.005, (0.15 0 0.05)
0.955667, 0.005, (0.15 0 0.05)
0.951262, 0.005, (0.15 0 0.05)
0.947259, 0.005, (0.15 0 0.05)
0.943663, 0.005, (0.15 0 0.05)
0.940479, 0.005, (0.15 0 0.05)
0.93771, 0.005, (0.15 0 0.05)
0.935361, 0.005, (0.15 0 0.05)
0.933435, 0.005, (0.15 0 0.05)
0.931933, 0.005, (0.15 0 0.05)
0.93086, 0.005, (0.15 0 0.05)
0.930215, 0.005, (0.15 0 0.05)
0.93, 0.005, (0.15 0 0.05)
0.930215, 0.005, (0.15 0 0.05)
0.93086, 0.005, (0.15 0 0.05)
0.931933, 0.005, (0.15 0 0.05)
0.933435, 0.005, (0.15 0 0.05)
0.935361, 0.005, (0.15 0 0.05)
0.93771, 0.005, (0.15 0 0.05)
0.940479, 0.005, (0.15 0 0.05)
0.943663, 0.005, (0.15 0 0.05)
0.947259, 0.005, (0.15 0 0.05)
0.951262, 0.005, (0.15 0 0.05)
0.955667, 0.005, (0.15 0 0.05)
0.960469, 0.005, (0.15 0 0.05)
0.96566, 0.005, (0.15 0 0.05)
0.971236, 0.005, (0.15 0 0.05)
0.97719, 0.005, (0.15 0 0.05)
0.983514, 0.005, (0.15 0 0.05)
0.990202, 0.005, (0.15 0 0.05)
0.997246, 0.005, (0.15 0 0.05)
1.00464, 0.005, (0.15 0 0.05)
1.01237, 0.005, (0.15 0 0.05)
1.02044, 0.005, (0.15 0 0.05)
1.02883, 0.005, (0.15 0 0.05)
1.03755, 0.005, (0.15 0 0.05)
1.04657, 0.005, (0.15 0 0.05)
1.05589, 0.005, (0.15 0 0.05)
1.0655, 0.005, (0.15 0 0.05)
1.07541, 0.005, (0.15 0 0.05)
1.08559, 0.005, (0.15 0 0.05)
1.09604, 0.005, (0.15 0 0.05)
1.10675, 0.005, (0.15 0 0.05)
1.11772, 0.005, (0.15 0 0.05)
1.12894, 0.005, (0.15 0 0.05)
1.14039, 0.005, (0.15 0 0.05)
1.15209, 0.005, (0.15 0 0.05)
1.164, 0.005, (0.15 0 0.05)
1.17614, 0.005, (0.15 0 0.05)
1.18849, 0.005, (0.15 0 0.05)
1.20104, 0.005, (0.15 0 0.05)
1.2138, 0.005, (0.15 0 0.05)
1.22674, 0.005, (0.15 0 0.05)
1.23988, 0.005, (0.15 0 0.05)
1.2532, 0.005, (0.15 0 0.05)
1.26669, 0.005, (0.15 0 0.05)
1.28035, 0.005, (0.15 0 0.05)
1.29418, 0.005, (0.15 0 0.05)
1.30817, 0.005, (0.15 0 0.05)
1.32231, 0.005, (0.15 0 0.05)
1.3366, 0.005, (0.15 0 0.05)
1.35104, 0.005, (0.15 0 0.05)
1.36561, 0.005, (0.15 0 0.05)
1.38033, 0.005, (0.15 0 0.05)
1.39517, 0.005, (0.15 0 0.05)
1.41014, 0.005, (0.15 0 0.05)
1.42524, 0.005, (0.15 0 0.05)
1.44045, 0.005, (0.15 0 0.05)
1.45578, 0.005, (0.15 0 0.05)
1.47122, 0.005, (0.15 0 0.05)
1.48678, 0.005, (0.15 0 0.05)
1.50243, 0.005, (0.15 0 0.05)
1.51819, 0.005, (0.15 0 0.05)
1.53405, 0.005, (0.15 0 0.05)
1.55, 0.005, (0.15 0 0.05)
1.56605, 0.005, (0.15 0 0.05)
1.58218, 0.005, (0.15 0 0.05)
1.59841, 0.005, (0.15 0 0.05)
1.61471, 0.005, (0.15 0 0.05)
1.6311, 0.005, (0.15 0 0.05)
1.64757, 0.005, (0.15 0 0.05)
1.66412, 0.005, (0.15 0 0.05)
1.68074, 0.005, (0.15 0 0.05)
1.69744, 0.005, (0.15 0 0.05)
1.71421, 0.005, (0.15 0 0.05)
1.73104, 0.005, (0.15 0 0.05)
1.74794, 0.005, (0.15 0 0.05)
1.76491, 0.005, (0.15 0 0.05)
1.78194, 0.005, (0.15 0 0.05)
1.79903, 0.005, (0.15 0 0.05)
1.81618, 0.005, (0.15 0 0.05)
1.83338, 0.005, (0.15 0 0.05)
1.85065, 0.005, (0.15 0 0.05)
1.86797, 0.005, (0.15 0 0.05)
1.88534, 0.005, (0.15 0 0.05)
1.90276, 0.005, (0.15 0 0.05)
1.92023, 0.005, (0.15 0 0.05)
1.93776, 0.005, (0.15 0 0.05)
1.95533, 0.005, (0.15 0 0.05)
1.97294, 0.005, (0.15 0 0.05)
1.9906, 0.005, (0.15 0 0.05)
2.00831, 0.005, (0.15 0 0.05)
2.02606, 0.005, (0.15 0 0.05)
2.04384, 0.005, (0.15 0 0.05)
2.06167, 0.005, (0.15 0 0.05)
1.45866, 0.005, (0.15 0 0.05)
1.44309, 0.005, (0.15 0 0.05)
1.42762, 0.005, (0.15 0 0.05)
1.41227, 0.005, (0.15 0 0.05)
1.39703, 0.005, (0.15 0 0.05)
1.38192, 0.005, (0.15 0 0.05)
1.36693, 0.005, (0.15 0 0.05)
1.35207, 0.005, (0.15 0 0.05)
1.33735, 0.005, (0.15 0 0.05)
1.32276, 0.005, (0.15 0 0.05)
1.30832, 0.005, (0.15 0 0.05)
1.29402, 0.005, (0.15 0 0.05)
1.27988, 0.005, (0.15 0 0.05)
1.2659, 0.005, (0.15 0 0.05)
1.25208, 0.005, (0.15 0 0.05)
1.23843, 0.005, (0.15 0 0.05)
1.22495, 0.005, (0.15 0 0.05)
1.21165, 0.005, (0.15 0 0.05)
1.19854, 0.005, (0.15 0 0.05)
1.18562, 0.005, (0.15 0 0.05)
1.1729, 0.005, (0.15 0 0.05)
1.16039, 0.005, (0.15 0 0.05)
1.14809, 0.005, (0.15 0 0.05)
1.136, 0.005, (0.15 0 0.05)
1.12414, 0.005, (0.15 0 0.05)
1.11252, 0.005, (0.15 0 0.05)
1.10114, 0.005, (0.15 0 0.05)
1.09, 0.005, (0.15 0 0.05)
1.07912, 0.005, (0.15 0 0.05)
1.0685, 0.005, (0.15 0 0.05)
1.05816, 0.005, (0.15 0 0.05)
1.04809, 0.005, (0.15 0 0.05)
1.03832, 0.005, (0.15 0 0.05)
1.02883, 0.005, (0.15 0 0.05)
1.01966, 0.005, (0.15 0 0.05)
1.01079, 0.005, (0.15 0 0.05)
1.00225, 0.005, (0.15 0 0.05)
0.994032, 0.005, (0.15 0 0.05)
0.986154, 0.005, (0.15 0 0.05)
0.978621, 0.005, (0.15 0 0.05)
0.971442, 0.005, (0.15 0 0.05)
0.964624, 0.005, (0.15 0 0.05)
0.958175, 0.005, (0.15 0 0.05)
0.952103, 0.005, (0.15 0 0.05)
0.946414, 0.005, (0.15 0 0.05)
0.941116, 0.005, (0.15 0 0.05)
0.936216, 0.005, (0.15 0 0.05)
0.931719, 0.005, (0.15 0 0.05)
0.927631, 0.005, (0.15 0 0.05)
0.923959, 0.005, (0.15 0 0.05)
0.920706, 0.005, (0.15 0 0.05)
0.917878, 0.005, (0.15 0 0.05)
0.915478, 0.005, (0.15 0 0.05)
0.91351, 0.005, (0.15 0 0.05)
0.911976, 0.005, (0.15 0 0.05)
0.910879, 0.005, (0.15 0 0.05)
0.91022, 0.005, (0.15 0 0.05)
0.91, 0.005, (0.15 0 0.05)
0.91022, 0.005, (0.15 0 0.05)
0.910879, 0.005, (0.15 0 0.05)
0.911976, 0.005, (0.15 0 0.05)
0.91351, 0.005, (0.15 0 0.05)
0.915478, 0.005, (0.15 0 0.05)
0.917878, 0.005, (0.15 0 0.05)
0.920706, 0.005, (0.15 0 0.05)
0.923959, 0.005, (0.15 0 0.05)
0.927631, 0.005, (0.15 0 0.05)
0.931719, 0.005, (0.15 0 0.05)
0.936216, 0.005, (0.15 0 0.05)
0.941116, 0.005, (0.15 0 0.05)
0.946414, 0.005, (0.15 0 0.05)
0.952103, 0.005, (0.15 0 0.05)
0.958175, 0.005, (0.15 0 0.05)
0.964624, 0.005, (0.15 0 0.05)
0.971442, 0.005, (0.15 0 0.05)
0.978621, 0.005, (0.15 0 0.05)
0.986154, 0.005, (0.15 0 0.05)
0.994032, 0.005, (0.15 0 0.05)
1.00225, 0.005, (0.15 0 0.05)
1.01079, 0.005, (0.15 0 0.05)
1.01966, 0.005, (0.15 0 0.05)
1.02883, 0.005, (0.15 0 0.05)
1.03832, 0.005, (0.15 0 0.05)
1.04809, 0.005, (0.15 0 0.05)
1.05816, 0.005, (0.15 0 0.05)
1.0685, 0.005, (0.15 0 0.05)
1.07912, 0.005, (0.15 0 0.05)
1.09, 0.005, (0.15 0 0.05)
1.10114, 0.005, (0.15 0 0.05)
1.11252, 0.005, (0.15 0 0.05)
1.12414, 0.005, (0.15 0 0.05)
1.136, 0.005, (0.15 0 0.05)
1.14809, 0.005, (0.15 0 0.05)
1.16039, 0.005, (0.15 0 0.05)
1.1729, 0.005, (0.15 0 0.05)
1.18562, 0.005, (0.15 0 0.05)
1.19854, 0.005, (0.15 0 0.05)
1.21165, 0.005, (0.15 0 0.05)
1.22495, 0.005, (0.15 0 0.05)
1.23843, 0.005, (0.15 0 0.05)
1.25208, 0.005, (0.15 0 0.05)
1.2659, 0.005, (0.15 0 0.05)
1.27988, 0.005, (0.15 0 0.05)
1.29402, 0.005, (0.15 0 0.05)
1.30832, 0.005, (0.15 0 0.05)
1.32276, 0.005, (0.15 0 0.05)
1.33735, 0.005, (0.15 0 0.05)
1.35207, 0.005, (0.15 0 0.05)
1.36693, 0.005, (0.15 0 0.05)
1.38192, 0.005, (0.15 0 0.05)
1.39703, 0.005, (0.15 0 0.05)
1.41227, 0.005, (0.15 0 0.05)
1.42762, 0.005, (0.15 0 0.05)
1.44309, 0.005, (0.15 0 0.05)
1.45866, 0.005, (0.15 0 0.05)
1.47435, 0.005, (0.15 0 0.05)
1.49013, 0.005, (0.15 0 0.05)
1.50602, 0.005, (0.15 0 0.05)
1.52201, 0.005, (0.15 0 0.05)
1.53808, 0.005, (0.15 0 0.05)
1.55425, 0.005, (0.15 0 0.05)
1.57051, 0.005, (0.15 0 0.05)
1.58685, 0.005, (0.15 0 0.05)
1.60328, 0.005, (0.15 0 0.05)
1.61978, 0.005, (0.15 0 0.05)
1.63637, 0.005, (0.15 0 0.05)
1.65303, 0.005, (0.15 0 0.05)
1.66976, 0.005, (0.15 0 0.05)
1.68656, 0.005, (0.15 0 0.05)
1.70344, 0.005, (0.15 0 0.05)
1.72038, 0.005, (0.15 0 0.05)
1.73738, 0.005, (0.15 0 0.05)
1.75445, 0.005, (0.15 0 0.05)
1.77158, 0.005, (0.15 0 0.05)
1.78877, 0.005, (0.15 0 0.05)
1.80602, 0.005, (0.15 0 0.05)
1.82332, 0.005, (0.15 0 0.05)
1.84068, 0.005, (0.15 0 0.05)
1.85809, 0.005, (0.15 0 0.05)
1.87555, 0.005, (0.15 0 0.05)
1.89307, 0.005, (0.15 0 0.05)
1.91063, 0.005, (0.15 0 0.05)
1.92824, 0.005, (0.15 0 0.05)
1.94589, 0.005, (0.15 0 0.05)
1.96359, 0.005, (0.15 0 0.05)
1.98134, 0.005, (0.15 0 0.05)
1.99912, 0.005, (0.15 0 0.05)
2.01695, 0.005, (0.15 0 0.05)
2.03482, 0.005, (0.15 0 0.05)
2.05273, 0.005, (0.15 0 0.05)
1.44627, 0.005, (0.15 0 0.05)
1.43056, 0.005, (0.15 0 0.05)
1.41496, 0.005, (0.15 0 0.05)
1.39946, 0.005, (0.15 0 0.05)
1.38409, 0.005, (0.15 0 0.05)
1.36883, 0.005, (0.15 0 0.05)
1.3537, 0.005, (0.15 0 0.05)
1.33869, 0.005, (0.15 0 0.05)
1.32382, 0.005, (0.15 0 0.05)
1.30908, 0.005, (0.15 0 0.05)
1.29449, 0.005, (0.15 0 0.05)
1.28004, 0.005, (0.15 0 0.05)
1.26574, 0.005, (0.15 0 0.05)
1.2516, 0.005, (0.15 0 0.05)
1.23762, 0.005, (0.15 0 0.05)
1.22381, 0.005, (0.15 0 0.05)
1.21017, 0.005, (0.15 0 0.05)
1.1967, 0.005, (0.15 0 0.05)
1.18343, 0.005, (0.15 0 0.05)
1.17034, 0.005, (0.15 0 0.05)
1.15745, 0.005, (0.15 0 0.05)
1.14477, 0.005, (0.15 0 0.05)
1.1323, 0.005, (0.15 0 0.05)
1.12004, 0.005, (0.15 0 0.05)
1.10802, 0.005, (0.15 0 0.05)
1.09622, 0.005, (0.15 0 0.05)
1.08467, 0.005, (0.15 0 0.05)
1.07336, 0.005, (0.15 0 0.05)
1.06231, 0.005, (0.15 0 0.05)
1.05152, 0.005, (0.15 0 0.05)
1.04101, 0.005, (0.15 0 0.05)
1.03078, 0.005, (0.15 0 0.05)
1.02083, 0.005, (0.15 0 0.05)
1.01119, 0.005, (0.15 0 0.05)
1.00185, 0.005, (0.15 0 0.05)
0.992824, 0.005, (0.15 0 0.05)
0.984124, 0.005, (0.15 0 0.05)
0.975756, 0.005, (0.15 0 0.05)
0.967729, 0.005, (0.15 0 0.05)
0.960052, 0.005, (0.15 0 0.05)
0.952733, 0.005, (0.15 0 0.05)
0.94578, 0.005, (0.15 0 0.05)
0.939202, 0.005, (0.15 0 0.05)
0.933006, 0.005, (0.15 0 0.05)
0.9272, 0.005, (0.15 0 0.05)
0.921792, 0.005, (0.15 0 0.05)
0.916788, 0.005, (0.15 0 0.05)
0.912195, 0.005, (0.15 0 0.05)
0.90802, 0.005, (0.15 0 0.05)
0.904268, 0.005, (0.15 0 0.05)
0.900944, 0.005, (0.15 0 0.05)
0.898053, 0.005, (0.15 0 0.05)
0.8956, 0.005, (0.15 0 0.05)
0.893588, 0.005, (0.15 0 0.05)
0.89202, 0.005, (0.15 0 0.05)
0.890898, 0.005, (0.15 0 0.05)
0.890225, 0.005, (0.15 0 0.05)
0.89, 0.005, (0.15 0 0.05)
0.890225, 0.005, (0.15 0 0.05)
0.890898, 0.005, (0.15 0 0.05)
0.89202, 0.005, (0.15 0 0.05)
0.893588, 0.005, (0.15 0 0.05)
0.8956, 0.005, (0.15 0 0.05)
0.898053, 0.005, (0.15 0 0.05)
0.900944, 0.005, (0.15 0 0.05)
0.904268, 0.005, (0.15 0 0.05)
0.90802, 0.005, (0.15 0 0.05)
0.912195, 0.005, (0.15 0 0.05)
0.916788, 0.005, (0.15 0 0.05)
0.921792, 0.005, (0.15 0 0.05)
0.9272, 0.005, (0.15 0 0.05)
0.933006, 0.005, (0.15 0 0.05)
0.939202, 0.005, (0.15 0 0.05)
0.94578, 0.005, (0.15 0 0.05)
0.952733, 0.005, (0.15 0 0.05)
0.960052, 0.005, (0.15 0 0.05)
0.967729, 0.005, (0.15 0 0.05)
0.975756, 0.005, (0.15 0 0.05)
0.984124, 0.005, (0.15 0 0.05)
0.992824, 0.005, (0.15 0 0.05)
1.00185, 0.005, (0.15 0 0.05)
1.01119, 0.005, (0.15 0 0.05)
1.02083, 0.005, (0.15 0 0.05)
1.03078, 0.005, (0.15 0 0.05)
1.04101, 0.005, (0.15 0 0.05)
1.05152, 0.005, (0.15 0 0.05)
1.06231, 0.005, (0.15 0 0.05)
1.07336, 0.005, (0.15 0 0.05)
1.08467, 0.005, (0.15 0 0.05)
1.09622, 0.005, (0.15 0 0.05)
1.10802, 0.005, (0.15 0 0.05)
1.12004, 0.005, (0.15 0 0.05)
1.1323, 0.005, (0.15 0 0.05)
1.14477, 0.005, (0.15 0 0.05)
1.15745, 0.005, (0.15 0 0.05)
1.17034, 0.005, (0.15 0 0.05)
1.18343, 0.005, (0.15 0 0.05)
1.1967, 0.005, (0.15 0 0.05)
1.21017, 0.005, (0.15 0 0.05)
1.22381, 0.005, (0.15 0 0.05)
1.23762, 0.005, (0.15 0 0.05)
1.2516, 0.005, (0.15 0 0.05)
1.26574, 0.005, (0.15 0 0.05)
1.28004, 0.005, (0.15 0 0.05)
1.29449, 0.005, (0.15 0 0.05)
1.30908, 0.005, (0.15 0 0.05)
1.32382, 0.005, (0.15 0 0.05)
1.33869, 0.005, (0.15 0 0.05)
1.3537, 0.005, (0.15 0 0.05)
1.36883, 0.005, (0.15 0 0.05)
1.38409, 0.005, (0.15 0 0.05)
1.39946, 0.005, (0.15 0 0.05)
1.41496, 0.005, (0.15 0 0.05)
1.43056, 0.005, (0.15 0 0.05)
1.44627, 0.005, (0.15 0 0.05)
1.46209, 0.005, (0.15 0 0.05)
1.47801, 0.005, (0.15 0 0.05)
1.49402, 0.005, (0.15 0 0.05)
1.51013, 0.005, (0.15 0 0.05)
1.52634, 0.005, (0.15 0 0.05)
1.54263, 0.005, (0.15 0 0.05)
1.55901, 0.005, (0.15 0 0.05)
1.57547, 0.005, (0.15 0 0.05)
1.59201, 0.005, (0.15 0 0.05)
1.60863, 0.005, (0.15 0 0.05)
1.62533, 0.005, (0.15 0 0.05)
1.6421, 0.005, (0.15 0 0.05)
1.65895, 0.005, (0.15 0 0.05)
1.67586, 0.005, (0.15 0 0.05)
1.69284, 0.005, (0.15 0 0.05)
1.70988, 0.005, (0.15 0 0.05)
1.72699, 0.005, (0.15 0 0.05)
1.74416, 0.005, (0.15 0 0.05)
1.76139, 0.005, (0.15 0 0.05)
1.77868, 0.005, (0.15 0 0.05)
1.79602, 0.005, (0.15 0 0.05)
1.81342, 0.005, (0.15 0 0.05)
1.83087, 0.005, (0.15 0 0.05)
1.84838, 0.005, (0.15 0 0.05)
1.86593, 0.005, (0.15 0 0.05)
1.88353, 0.005, (0.15 0 0.05)
1.90118, 0.005, (0.15 0 0.05)
1.91888, 0.005, (0.15 0 0.05)
1.93662, 0.005, (0.15 0 0.05)
1.95441, 0.005, (0.15 0 0.05)
1.97223, 0.005, (0.15 0 0.05)
1.9901, 0.005, (0.15 0 0.05)
2.00801, 0.005, (0.15 0 0.05)
2.02596, 0.005, (0.15 0 0.05)
2.04394, 0.005, (0.15 0 0.05)
1.43405, 0.005, (0.15 0 0.05)
1.4182, 0.005, (0.15 0 0.05)
1.40246, 0.005, (0.15 0 0.05)
1.38683, 0.005, (0.15 0 0.05)
1.37131, 0.005, (0.15 0 0.05)
1.35591, 0.005, (0.15 0 0.05)
1.34063, 0.005, (0.15 0 0.05)
1.32548, 0.005, (0.15 0 0.05)
1.31046, 0.005, (0.15 0 0.05)
1.29557, 0.005, (0.15 0 0.05)
1.28082, 0.005, (0.15 0 0.05)
1.26621, 0.005, (0.15 0 0.05)
1.25176, 0.005, (0.15 0 0.05)
1.23746, 0.005, (0.15 0 0.05)
1.22332, 0.005, (0.15 0 0.05)
1.20934, 0.005, (0.15 0 0.05)
1.19553, 0.005, (0.15 0 0.05)
1.18191, 0.005, (0.15 0 0.05)
1.16846, 0.005, (0.15 0 0.05)
1.15521, 0.005, (0.15 0 0.05)
1.14215, 0.005, (0.15 0 0.05)
1.12929, 0.005, (0.15 0 0.05)
1.11665, 0.005, (0.15 0 0.05)
1.10422, 0.005, (0.15 0 0.05)
1.09202, 0.005, (0.15 0 0.05)
1.08005, 0.005, (0.15 0 0.05)
1.06832, 0.005, (0.15 0 0.05)
1.05683, 0.005, (0.15 0 0.05)
1.04561, 0.005, (0.15 0 0.05)
1.03465, 0.005, (0.15 0 0.05)
1.02396, 0.005, (0.15 0 0.05)
1.01356, 0.005, (0.15 0 0.05)
1.00344, 0.005, (0.15 0 0.05)
0.99363, 0.005, (0.15 0 0.05)
0.984124, 0.005, (0.15 0 0.05)
0.974936, 0.005, (0.15 0 0.05)
0.966075, 0.005, (0.15 0 0.05)
0.957549, 0.005, (0.15 0 0.05)
0.949368, 0.005, (0.15 0 0.05)
0.941541, 0.005, (0.15 0 0.05)
0.934077, 0.005, (0.15 0 0.05)
0.926984, 0.005, (0.15 0 0.05)
0.920272, 0.005, (0.15 0 0.05)
0.913947, 0.005, (0.15 0 0.05)
0.90802, 0.005, (0.15 0 0.05)
0.902497, 0.005, (0.15 0 0.05)
0.897385, 0.005, (0.15 0 0.05)
0.892693, 0.005, (0.15 0 0.05)
0.888426, 0.005, (0.15 0 0.05)
0.88459, 0.005, (0.15 0 0.05)
0.881192, 0.005, (0.15 0 0.05)
0.878237, 0.005, (0.15 0 0.05)
0.875728, 0.005, (0.15 0 0.05)
0.87367, 0.005, (0.15 0 0.05)
0.872067, 0.005, (0.15 0 0.05)
0.870919, 0.005, (0.15 0 0.05)
0.87023, 0.005, (0.15 0 0.05)
0.87, 0.005, (0.15 0 0.05)
0.87023, 0.005, (0.15 0 0.05)
0.870919, 0.005, (0.15 0 0.05)
0.872067, 0.005, (0.15 0 0.05)
0.87367, 0.005, (0.15 0 0.05)
0.875728, 0.005, (0.15 0 0.05)
0.878237, 0.005, (0.15 0 0.05)
0.881192, 0.005, (0.15 0 0.05)
0.88459, 0.005, (0.15 0 0.05)
0.888426, 0.005, (0.15 0 0.05)
0.892693, 0.005, (0.15 0 0.05)
0.897385, 0.005, (0.15 0 0.05)
0.902497, 0.005, (0.15 0 0.05)
0.90802, 0.005, (0.15 0 0.05)
0.913947, 0.005, (0.15 0 0.05)
0.920272, 0.005, (0.15 0 0.05)
0.926984, 0.005, (0.15 0 0.05)
0.934077, 0.005, (0.15 0 0.05)
0.941541, 0.005, (0.15 0 0.05)
0.949368, 0.005, (0.15 0 0.05)
0.957549, 0.005, (0.15 0 0.05)
0.966075, 0.005, (0.15 0 0.05)
0.974936, 0.005, (0.15 0 0.05)
0.984124, 0.005, (0.15 0 0.05)
0.99363, 0.005, (0.15 0 0.05)
1.00344, 0.005, (0.15 0 0.05)
1.01356, 0.005, (0.15 0 0.05)
1.02396, 0.005, (0.15 0 0.05)
1.03465, 0.005, (0.15 0 0.05)
1.04561, 0.005, (0.15 0 0.05)
1.05683, 0.005, (0.15 0 0.05)
1.06832, 0.005, (0.15 0 0.05)
1.08005, 0.005, (0.15 0 0.05)
1.09202, 0.005, (0.15 0 0.05)
1.10422, 0.005, (0.15 0 0.05)
1.11665, 0.005, (0.15 0 0.05)
1.12929, 0.005, (0.15 0 0.05)
1.14215, 0.005, (0.15 0 0.05)
1.15521, 0.005, (0.15 0 0.05)
1.16846, 0.005, (0.15 0 0.05)
1.18191, 0.005, (0.15 0 0.05)
1.19553, 0.005, (0.15 0 0.05)
1.20934, 0.005, (0.15 0 0.05)
1.22332, 0.005, (0.15 0 0.05)
1.23746, 0.005, (0.15 0 0.05)
1.25176, 0.005, (0.15 0 0.05)
1.26621, 0.005, (0.15 0 0.05)
1.28082, 0.005, (0.15 0 0.05)
1.29557, 0.005, (0.15 0 0.05)
1.31046, 0.005, (0.15 0 0.05)
1.32548, 0.005, (0.15 0 0.05)
1.34063, 0.005, (0.15 0 0.05)
1.35591, 0.005, (0.15 0 0.05)
1.37131, 0.005, (0.15 0 0.05)
1.38683, 0.005, (0.15 0 0.05)
1.40246, 0.005, (0.15 0 0.05)
1.4182, 0.005, (0.15 0 0.05)
1.43405, 0.005, (0.15 0 0.05)
1.45, 0.005, (0.15 0 0.05)
1.46605, 0.005, (0.15 0 0.05)
1.48219, 0.005, (0.15 0 0.05)
1.49843, 0.005, (0.15 0 0.05)
1.51476, 0.005, (0.15 0 0.05)
1.53118, 0.005, (0.15 0 0.05)
1.54768, 0.005, (0.15 0 0.05)
1.56426, 0.005, (0.15 0 0.05)
1.58092, 0.005, (0.15 0 0.05)
1.59765, 0.005, (0.15 0 0.05)
1.61447, 0.005, (0.15 0 0.05)
1.63135, 0.005, (0.15 0 0.05)
1.6483, 0.005, (0.15 0 0.05)
1.66532, 0.005, (0.15 0 0.05)
1.68241, 0.005, (0.15 0 0.05)
1.69956, 0.005, (0.15 0 0.05)
1.71677, 0.005, (0.15 0 0.05)
1.73404, 0.005, (0.15 0 0.05)
1.75137, 0.005, (0.15 0 0.05)
1.76876, 0.005, (0.15 0 0.05)
1.7862, 0.005, (0.15 0 0.05)
1.80369, 0.005, (0.15 0 0.05)
1.82124, 0.005, (0.15 0 0.05)
1.83883, 0.005, (0.15 0 0.05)
1.85648, 0.005, (0.15 0 0.05)
1.87417, 0.005, (0.15 0 0.05)
1.8919, 0.005, (0.15 0 0.05)
1.90969, 0.005, (0.15 0 0.05)
1.92751, 0.005, (0.15 0 0.05)
1.94538, 0.005, (0.15 0 0.05)
1.96329, 0.005, (0.15 0 0.05)
1.98124, 0.005, (0.15 0 0.05)
1.99922, 0.005, (0.15 0 0.05)
2.01725, 0.005, (0.15 0 0.05)
2.03531, 0.005, (0.15 0 0.05)
1.42201, 0.005, (0.15 0 0.05)
1.40602, 0.005, (0.15 0 0.05)
1.39014, 0.005, (0.15 0 0.05)
1.37437, 0.005, (0.15 0 0.05)
1.35871, 0.005, (0.15 0 0.05)
1.34317, 0.005, (0.15 0 0.05)
1.32774, 0.005, (0.15 0 0.05)
1.31244, 0.005, (0.15 0 0.05)
1.29727, 0.005, (0.15 0 0.05)
1.28222, 0.005, (0.15 0 0.05)
1.26732, 0.005, (0.15 0 0.05)
1.25256, 0.005, (0.15 0 0.05)
1.23794, 0.005, (0.15 0 0.05)
1.22348, 0.005, (0.15 0 0.05)
1.20917, 0.005, (0.15 0 0.05)
1.19503, 0.005, (0.15 0 0.05)
1.18106, 0.005, (0.15 0 0.05)
1.16726, 0.005, (0.15 0 0.05)
1.15365, 0.005, (0.15 0 0.05)
1.14022, 0.005, (0.15 0 0.05)
1.12699, 0.005, (0.15 0 0.05)
1.11396, 0.005, (0.15 0 0.05)
1.10114, 0.005, (0.15 0 0.05)
1.08853, 0.005, (0.15 0 0.05)
1.07615, 0.005, (0.15 0 0.05)
1.064, 0.005, (0.15 0 0.05)
1.05209, 0.005, (0.15 0 0.05)
1.04043, 0.005, (0.15 0 0.05)
1.02903, 0.005, (0.15 0 0.05)
1.01789, 0.005, (0.15 0 0.05)
1.00703, 0.005, (0.15 0 0.05)
0.996444, 0.005, (0.15 0 0.05)
0.986154, 0.005, (0.15 0 0.05)
0.976166, 0.005, (0.15 0 0.05)
0.966488, 0.005, (0.15 0 0.05)
0.957131, 0.005, (0.15 0 0.05)
0.948103, 0.005, (0.15 0 0.05)
0.939415, 0.005, (0.15 0 0.05)
0.931075, 0.005, (0.15 0 0.05)
0.923093, 0.005, (0.15 0 0.05)
0.915478, 0.005, (0.15 0 0.05)
0.90824, 0.005, (0.15 0 0.05)
0.901388, 0.005, (0.15 0 0.05)
0.89493, 0.005, (0.15 0 0.05)
0.888876, 0.005, (0.15 0 0.05)
0.883233, 0.005, (0.15 0 0.05)
0.878009, 0.005, (0.15 0 0.05)
0.873212, 0.005, (0.15 0 0.05)
0.86885, 0.005, (0.15 0 0.05)
0.864928, 0.005, (0.15 0 0.05)
0.861452, 0.005, (0.15 0 0.05)
0.858429, 0.005, (0.15 0 0.05)
0.855862, 0.005, (0.15 0 0.05)
0.853756, 0.005, (0.15 0 0.05)
0.852115, 0.005, (0.15 0 0.05)
0.850941, 0.005, (0.15 0 0.05)
0.850235, 0.005, (0.15 0 0.05)
0.85, 0.005, (0.15 0 0.05)
0.850235, 0.005, (0.15 0 0.05)
0.850941, 0.005, (0.15 0 0.05)
0.852115, 0.005, (0.15 0 0.05)
0.853756, 0.005, (0.15 0 0.05)
0.855862, 0.005, (0.15 0 0.05)
0.858429, 0.005, (0.15 0 0.05)
0.861452, 0.005, (0.15 0 0.05)
0.864928, 0.005, (0.15 0 0.05)
0.86885, 0.005, (0.15 0 0.05)
0.873212, 0.005, (0.15 0 0.05)
0.878009, 0.005, (0.15 0 0.05)
0.883233, 0.005, (0.15 0 0.05)
0.888876, 0.005, (0.15 0 0.05)
0.89493, 0.005, (0.15 0 0.05)
0.901388, 0.005, (0.15 0 0.05)
0.90824, 0.005, (0.15 0 0.05)
0.915478, 0.005, (0.15 0 0.05)
0.923093, 0.005, (0.15 0 0.05)
0.931075, 0.005, (0.15 0 0.05)
0.939415, 0.005, (0.15 0 0.05)
0.948103, 0.005, (0.15 0 0.05)
0.957131, 0.005, (0.15 0 0.05)
0.966488, 0.005, (0.15 0 0.05)
0.976166, 0.005, (0.15 0 0.05)
0.986154, 0.005, (0.15 0 0.05)
0.996444, 0.005, (0.15 0 0.05)
1.00703, 0.005, (0.15 0 0.05)
1.01789, 0.005, (0.15 0 0.05)
1.02903, 0.005, (0.15 0 0.05)
1.04043, 0.005, (0.15 0 0.05)
1.05209, 0.005, (0.15 0 0.05)
1.064, 0.005, (0.15 0 0.05)
1.07615, 0.005, (0.15 0 0.05)
1.08853, 0.005, (0.15 0 0.05)
1.10114, 0.005, (0.15 0 0.05)
1.11396, 0.005, (0.15 0 0.05)
1.12699, 0.005, (0.15 0 0.05)
1.14022, 0.005, (0.15 0 0.05)
1.15365, 0.005, (0.15 0 0.05)
1.16726, 0.005, (0.15 0 0.05)
1.18106, 0.005, (0.15 0 0.05)
1.19503, 0.005, (0.15 0 0.05)
1.20917, 0.005, (0.15 0 0.05)
1.22348, 0.005, (0.15 0 0.05)
1.23794, 0.005, (0.15 0 0.05)
1.25256, 0.005, (0.15 0 0.05)
1.26732, 0.005, (0.15 0 0.05)
1.28222, 0.005, (0.15 0 0.05)
1.29727, 0.005, (0.15 0 0.05)
1.31244, 0.005, (0.15 0 0.05)
1.32774, 0.005, (0.15 0 0.05)
1.34317, 0.005, (0.15 0 0.05)
1.35871, 0.005, (0.15 0 0.05)
1.37437, 0.005, (0.15 0 0.05)
1.39014, 0.005, (0.15 0 0.05)
1.40602, 0.005, (0.15 0 0.05)
1.42201, 0.005, (0.15 0 0.05)
1.43809, 0.005, (0.15 0 0.05)
1.45427, 0.005, (0.15 0 0.05)
1.47054, 0.005, (0.15 0 0.05)
1.48691, 0.005, (0.15 0 0.05)
1.50336, 0.005, (0.15 0 0.05)
1.5199, 0.005, (0.15 0 0.05)
1.53652, 0.005, (0.15 0 0.05)
1.55322, 0.005, (0.15 0 0.05)
1.57, 0.005, (0.15 0 0.05)
1.58685, 0.005, (0.15 0 0.05)
1.60378, 0.005, (0.15 0 0.05)
1.62077, 0.005, (0.15 0 0.05)
1.63783, 0.005, (0.15 0 0.05)
1.65496, 0.005, (0.15 0 0.05)
1.67215, 0.005, (0.15 0 0.05)
1.68941, 0.005, (0.15 0 0.05)
1.70672, 0.005, (0.15 0 0.05)
1.72409, 0.005, (0.15 0 0.05)
1.74152, 0.005, (0.15 0 0.05)
1.75901, 0.005, (0.15 0 0.05)
1.77654, 0.005, (0.15 0 0.05)
1.79413, 0.005, (0.15 0 0.05)
1.81177, 0.005, (0.15 0 0.05)
1.82945, 0.005, (0.15 0 0.05)
1.84719, 0.005, (0.15 0 0.05)
1.86497, 0.005, (0.15 0 0.05)
1.88279, 0.005, (0.15 0 0.05)
1.90066, 0.005, (0.15 0 0.05)
1.91857, 0.005, (0.15 0 0.05)
1.93652, 0.005, (0.15 0 0.05)
1.95451, 0.005, (0.15 0 0.05)
1.97254, 0.005, (0.15 0 0.05)
1.9906, 0.005, (0.15 0 0.05)
2.00871, 0.005, (0.15 0 0.05)
2.02684, 0.005, (0.15 0 0.05)
1.41014, 0.005, (0.15 0 0.05)
1.39402, 0.005, (0.15 0 0.05)
1.37801, 0.005, (0.15 0 0.05)
1.36209, 0.005, (0.15 0 0.05)
1.34629, 0.005, (0.15 0 0.05)
1.3306, 0.005, (0.15 0 0.05)
1.31503, 0.005, (0.15 0 0.05)
1.29958, 0.005, (0.15 0 0.05)
1.28425, 0.005, (0.15 0 0.05)
1.26905, 0.005, (0.15 0 0.05)
1.25399, 0.005, (0.15 0 0.05)
1.23907, 0.005, (0.15 0 0.05)
1.2243, 0.005, (0.15 0 0.05)
1.20967, 0.005, (0.15 0 0.05)
1.1952, 0.005, (0.15 0 0.05)
1.18089, 0.005, (0.15 0 0.05)
1.16675, 0.005, (0.15 0 0.05)
1.15278, 0.005, (0.15 0 0.05)
1.13899, 0.005, (0.15 0 0.05)
1.12539, 0.005, (0.15 0 0.05)
1.11198, 0.005, (0.15 0 0.05)
1.09877, 0.005, (0.15 0 0.05)
1.08577, 0.005, (0.15 0 0.05)
1.07299, 0.005, (0.15 0 0.05)
1.06042, 0.005, (0.15 0 0.05)
1.04809, 0.005, (0.15 0 0.05)
1.036, 0.005, (0.15 0 0.05)
1.02416, 0.005, (0.15 0 0.05)
1.01257, 0.005, (0.15 0 0.05)
1.00125, 0.005, (0.15 0 0.05)
0.990202, 0.005, (0.15 0 0.05)
0.979439, 0.005, (0.15 0 0.05)
0.968969, 0.005, (0.15 0 0.05)
0.958801, 0.005, (0.15 0 0.05)
0.948947, 0.005, (0.15 0 0.05)
0.939415, 0.005, (0.15 0 0.05)
0.930215, 0.005, (0.15 0 0.05)
0.921358, 0.005, (0.15 0 0.05)
0.912853, 0.005, (0.15 0 0.05)
0.90471, 0.005, (0.15 0 0.05)
0.896939, 0.005, (0.15 0 0.05)
0.88955, 0.005, (0.15 0 0.05)
0.882553, 0.005, (0.15 0 0.05)
0.875957, 0.005, (0.15 0 0.05)
0.86977, 0.005, (0.15 0 0.05)
0.864002, 0.005, (0.15 0 0.05)
0.858662, 0.005, (0.15 0 0.05)
0.853756, 0.005, (0.15 0 0.05)
0.849294, 0.005, (0.15 0 0.05)
0.845281, 0.005, (0.15 0 0.05)
0.841724, 0.005, (0.15 0 0.05)
0.83863, 0.005, (0.15 0 0.05)
0.836002, 0.005, (0.15 0 0.05)
0.833847, 0.005, (0.15 0 0.05)
0.832166, 0.005, (0.15 0 0.05)
0.830963, 0.005, (0.15 0 0.05)
0.830241, 0.005, (0.15 0 0.05)
0.83, 0.005, (0.15 0 0.05)
0.830241, 0.005, (0.15 0 0.05)
0.830963, 0.005, (0.15 0 0.05)
0.832166, 0.005, (0.15 0 0.05)
0.833847, 0.005, (0.15 0 0.05)
0.836002, 0.005, (0.15 0 0.05)
0.83863, 0.005, (0.15 0 0.05)
0.841724, 0.005, (0.15 0 0.05)
0.845281, 0.005, (0.15 0 0.05)
0.849294, 0.005, (0.15 0 0.05)
0.853756, 0.005, (0.15 0 0.05)
0.858662, 0.005, (0.15 0 0.05)
0.864002, 0.005, (0.15 0 0.05)
0.86977, 0.005, (0.15 0 0.05)
0.875957, 0.005, (0.15 0 0.05)
0.882553, 0.005, (0.15 0 0.05)
0.88955, 0.005, (0.15 0 0.05)
0.896939, 0.005, (0.15 0 0.05)
0.90471, 0.005, (0.15 0 0.05)
0.912853, 0.005, (0.15 0 0.05)
0.921358, 0.005, (0.15 0 0.05)
0.930215, 0.005, (0.15 0 0.05)
0.939415, 0.005, (0.15 0 0.05)
0.948947, 0.005, (0.15 0 0.05)
0.958801, 0.005, (0.15 0 0.05)
0.968969, 0.005, (0.15 0 0.05)
0.979439, 0.005, (0.15 0 0.05)
0.990202, 0.005, (0.15 0 0.05)
1.00125, 0.005, (0.15 0 0.05)
1.01257, 0.005, (0.15 0 0.05)
1.02416, 0.005, (0.15 0 0.05)
1.036, 0.005, (0.15 0 0.05)
1.04809, 0.005, (0.15 0 0.05)
1.06042, 0.005, (0.15 0 0.05)
1.07299, 0.005, (0.15 0 0.05)
1.08577, 0.005, (0.15 0 0.05)
1.09877, 0.005, (0.15 0 0.05)
1.11198, 0.005, (0.15 0 0.05)
1.12539, 0.005, (0.15 0 0.05)
1.13899, 0.005, (0.15 0 0.05)
1.15278, 0.005, (0.15 0 0.05)
1.16675, 0.005, (0.15 0 0.05)
1.18089, 0.005, (0.15 0 0.05)
1.1952, 0.005, (0.15 0 0.05)
1.20967, 0.005, (0.15 0 0.05)
1.2243, 0.005, (0.15 0 0.05)
1.23907, 0.005, (0.15 0 0.05)
1.25399, 0.005, (0.15 0 0.05)
1.26905, 0.005, (0.15 0 0.05)
1.28425, 0.005, (0.15 0 0.05)
1.29958, 0.005, (0.15 0 0.05)
1.31503, 0.005, (0.15 0 0.05)
1.3306, 0.005, (0.15 0 0.05)
1.34629, 0.005, (0.15 0 0.05)
1.36209, 0.005, (0.15 0 0.05)
1.37801, 0.005, (0.15 0 0.05)
1.39402, 0.005, (0.15 0 0.05)
1.41014, 0.005, (0.15 0 0.05)
1.42636, 0.005, (0.15 0 0.05)
1.44267, 0.005, (0.15 0 0.05)
1.45908, 0.005, (0.15 0 0.05)
1.47557, 0.005, (0.15 0 0.05)
1.49215, 0.005, (0.15 0 0.05)
1.50881, 0.005, (0.15 0 0.05)
1.52555, 0.005, (0.15 0 0.05)
1.54237, 0.005, (0.15 0 0.05)
1.55926, 0.005, (0.15 0 0.05)
1.57623, 0.005, (0.15 0 0.05)
1.59327, 0.005, (0.15 0 0.05)
1.61037, 0.005, (0.15 0 0.05)
1.62754, 0.005, (0.15 0 0.05)
1.64478, 0.005, (0.15 0 0.05)
1.66208, 0.005, (0.15 0 0.05)
1.67943, 0.005, (0.15 0 0.05)
1.69685, 0.005, (0.15 0 0.05)
1.71432, 0.005, (0.15 0 0.05)
1.73185, 0.005, (0.15 0 0.05)
1.74943, 0.005, (0.15 0 0.05)
1.76706, 0.005, (0.15 0 0.05)
1.78474, 0.005, (0.15 0 0.05)
1.80247, 0.005, (0.15 0 0.05)
1.82025, 0.005, (0.15 0 0.05)
1.83807, 0.005, (0.15 0 0.05)
1.85594, 0.005, (0.15 0 0.05)
1.87385, 0.005, (0.15 0 0.05)
1.8918, 0.005, (0.15 0 0.05)
1.90979, 0.005, (0.15 0 0.05)
1.92782, 0.005, (0.15 0 0.05)
1.94589, 0.005, (0.15 0 0.05)
1.964, 0.005, (0.15 0 0.05)
1.98215, 0.005, (0.15 0 0.05)
2.00032, 0.005, (0.15 0 0.05)
2.01854, 0.005, (0.15 0 0.05)
1.39846, 0.005, (0.15 0 0.05)
1.38221, 0.005, (0.15 0 0.05)
1.36605, 0.005, (0.15 0 0.05)
1.35, 0.005, (0.15 0 0.05)
1.33405, 0.005, (0.15 0 0.05)
1.31822, 0.005, (0.15 0 0.05)
1.3025, 0.005, (0.15 0 0.05)
1.2869, 0.005, (0.15 0 0.05)
1.27142, 0.005, (0.15 0 0.05)
1.25607, 0.005, (0.15 0 0.05)
1.24085, 0.005, (0.15 0 0.05)
1.22577, 0.005, (0.15 0 0.05)
1.21083, 0.005, (0.15 0 0.05)
1.19604, 0.005, (0.15 0 0.05)
1.1814, 0.005, (0.15 0 0.05)
1.16692, 0.005, (0.15 0 0.05)
1.15261, 0.005, (0.15 0 0.05)
1.13846, 0.005, (0.15 0 0.05)
1.1245, 0.005, (0.15 0 0.05)
1.11072, 0.005, (0.15 0 0.05)
1.09713, 0.005, (0.15 0 0.05)
1.08374, 0.005, (0.15 0 0.05)
1.07056, 0.005, (0.15 0 0.05)
1.05759, 0.005, (0.15 0 0.05)
1.04484, 0.005, (0.15 0 0.05)
1.03233, 0.005, (0.15 0 0.05)
1.02005, 0.005, (0.15 0 0.05)
1.00802, 0.005, (0.15 0 0.05)
0.996243, 0.005, (0.15 0 0.05)
0.984733, 0.005, (0.15 0 0.05)
0.973499, 0.005, (0.15 0 0.05)
0.962549, 0.005, (0.15 0 0.05)
0.951893, 0.005, (0.15 0 0.05)
0.941541, 0.005, (0.15 0 0.05)
0.931504, 0.005, (0.15 0 0.05)
0.921792, 0.005, (0.15 0 0.05)
0.912414, 0.005, (0.15 0 0.05)
0.903383, 0.005, (0.15 0 0.05)
0.894707, 0.005, (0.15 0 0.05)
0.886397, 0.005, (0.15 0 0.05)
0.878465, 0.005, (0.15 0 0.05)
0.870919, 0.005, (0.15 0 0.05)
0.863771, 0.005, (0.15 0 0.05)
0.85703, 0.005, (0.15 0 0.05)
0.850706, 0.005, (0.15 0 0.05)
0.844808, 0.005, (0.15 0 0.05)
0.839345, 0.005, (0.15 0 0.05)
0.834326, 0.005, (0.15 0 0.05)
0.829759, 0.005, (0.15 0 0.05)
0.825651, 0.005, (0.15 0 0.05)
0.82201, 0.005, (0.15 0 0.05)
0.818841, 0.005, (0.15 0 0.05)
0.816149, 0.005, (0.15 0 0.05)
0.813941, 0.005, (0.15 0 0.05)
0.812219, 0.005, (0.15 0 0.05)
0.810987, 0.005, (0.15 0 0.05)
0.810247, 0.005, (0.15 0 0.05)
0.81, 0.005, (0.15 0 0.05)
0.810247, 0.005, (0.15 0 0.05)
0.810987, 0.005, (0.15 0 0.05)
0.812219, 0.005, (0.15 0 0.05)
0.813941, 0.005, (0.15 0 0.05)
0.816149, 0.005, (0.15 0 0.05)
0.818841, 0.005, (0.15 0 0.05)
0.82201, 0.005, (0.15 0 0.05)
0.825651, 0.005, (0.15 0 0.05)
0.829759, 0.005, (0.15 0 0.05)
0.834326, 0.005, (0.15 0 0.05)
0.839345, 0.005, (0.15 0 0.05)
0.844808, 0.005, (0.15 0 0.05)
0.850706, 0.005, (0.15 0 0.05)
0.85703, 0.005, (0.15 0 0.05)
0.863771, 0.005, (0.15 0 0.05)
0.870919, 0.005, (0.15 0 0.05)
0.878465, 0.005, (0.15 0 0.05)
0.886397, 0.005, (0.15 0 0.05)
0.894707, 0.005, (0.15 0 0.05)
0.903383, 0.005, (0.15 0 0.05)
0.912414, 0.005, (0.15 0 0.05)
0.921792, 0.005, (0.15 0 0.05)
0.931504, 0.005, (0.15 0 0.05)
0.941541, 0.005, (0.15 0 0.05)
0.951893, 0.005, (0.15 0 0.05)
0.962549, 0.005, (0.15 0 0.05)
0.973499, 0.005, (0.15 0 0.05)
0.984733, 0.005, (0.15 0 0.05)
0.996243, 0.005, (0.15 0 0.05)
1.00802, 0.005, (0.15 0 0.05)
1.02005, 0.005, (0.15 0 0.05)
1.03233, 0.005, (0.15 0 0.05)
1.04484, 0.005, (0.15 0 0.05)
1.05759, 0.005, (0.15 0 0.05)
1.07056, 0.005, (0.15 0 0.05)
1.08374, 0.005, (0.15 0 0.05)
1.09713, 0.005, (0.15 0 0.05)
1.11072, 0.005, (0.15 0 0.05)
1.1245, 0.005, (0.15 0 0.05)
1.13846, 0.005, (0.15 0 0.05)
1.15261, 0.005, (0.15 0 0.05)
1.16692, 0.005, (0.15 0 0.05)
1.1814, 0.005, (0.15 0 0.05)
1.19604, 0.005, (0.15 0 0.05)
1.21083, 0.005, (0.15 0 0.05)
1.22577, 0.005, (0.15 0 0.05)
1.24085, 0.005, (0.15 0 0.05)
1.25607, 0.005, (0.15 0 0.05)
1.27142, 0.005, (0.15 0 0.05)
1.2869, 0.005, (0.15 0 0.05)
1.3025, 0.005, (0.15 0 0.05)
1.31822, 0.005, (0.15 0 0.05)
1.33405, 0.005, (0.15 0 0.05)
1.35, 0.005, (0.15 0 0.05)
1.36605, 0.005, (0.15 0 0.05)
1.38221, 0.005, (0.15 0 0.05)
1.39846, 0.005, (0.15 0 0.05)
1.41481, 0.005, (0.15 0 0.05)
1.43126, 0.005, (0.15 0 0.05)
1.44779, 0.005, (0.15 0 0.05)
1.46441, 0.005, (0.15 0 0.05)
1.48111, 0.005, (0.15 0 0.05)
1.4979, 0.005, (0.15 0 0.05)
1.51476, 0.005, (0.15 0 0.05)
1.5317, 0.005, (0.15 0 0.05)
1.54871, 0.005, (0.15 0 0.05)
1.56579, 0.005, (0.15 0 0.05)
1.58294, 0.005, (0.15 0 0.05)
1.60016, 0.005, (0.15 0 0.05)
1.61744, 0.005, (0.15 0 0.05)
1.63478, 0.005, (0.15 0 0.05)
1.65218, 0.005, (0.15 0 0.05)
1.66964, 0.005, (0.15 0 0.05)
1.68716, 0.005, (0.15 0 0.05)
1.70473, 0.005, (0.15 0 0.05)
1.72235, 0.005, (0.15 0 0.05)
1.74003, 0.005, (0.15 0 0.05)
1.75775, 0.005, (0.15 0 0.05)
1.77553, 0.005, (0.15 0 0.05)
1.79335, 0.005, (0.15 0 0.05)
1.81122, 0.005, (0.15 0 0.05)
1.82913, 0.005, (0.15 0 0.05)
1.84708, 0.005, (0.15 0 0.05)
1.86507, 0.005, (0.15 0 0.05)
1.88311, 0.005, (0.15 0 0.05)
1.90118, 0.005, (0.15 0 0.05)
1.9193, 0.005, (0.15 0 0.05)
1.93745, 0.005, (0.15 0 0.05)
1.95563, 0.005, (0.15 0 0.05)
1.97385, 0.005, (0.15 0 0.05)
1.99211, 0.005, (0.15 0 0.05)
2.0104, 0.005, (0.15 0 0.05)
1.38698, 0.005, (0.15 0 0.05)
1.37058, 0.005, (0.15 0 0.05)
1.35429, 0.005, (0.15 0 0.05)
1.3381, 0.005, (0.15 0 0.05)
1.32201, 0.005, (0.15 0 0.05)
1.30602, 0.005, (0.15 0 0.05)
1.29016, 0.005, (0.15 0 0.05)
1.2744, 0.005, (0.15 0 0.05)
1.25877, 0.005, (0.15 0 0.05)
1.24326, 0.005, (0.15 0 0.05)
1.22788, 0.005, (0.15 0 0.05)
1.21264, 0.005, (0.15 0 0.05)
1.19754, 0.005, (0.15 0 0.05)
1.18258, 0.005, (0.15 0 0.05)
1.16778, 0.005, (0.15 0 0.05)
1.15313, 0.005, (0.15 0 0.05)
1.13864, 0.005, (0.15 0 0.05)
1.12432, 0.005, (0.15 0 0.05)
1.11018, 0.005, (0.15 0 0.05)
1.09622, 0.005, (0.15 0 0.05)
1.08245, 0.005, (0.15 0 0.05)
1.06888, 0.005, (0.15 0 0.05)
1.05551, 0.005, (0.15 0 0.05)
1.04235, 0.005, (0.15 0 0.05)
1.02942, 0.005, (0.15 0 0.05)
1.01671, 0.005, (0.15 0 0.05)
1.00424, 0.005, (0.15 0 0.05)
0.992018, 0.005, (0.15 0 0.05)
0.980051, 0.005, (0.15 0 0.05)
0.968349, 0.005, (0.15 0 0.05)
0.956922, 0.005, (0.15 0 0.05)
0.94578, 0.005, (0.15 0 0.05)
0.934933, 0.005, (0.15 0 0.05)
0.924392, 0.005, (0.15 0 0.05)
0.914166, 0.005, (0.15 0 0.05)
0.904268, 0.005, (0.15 0 0.05)
0.894707, 0.005, (0.15 0 0.05)
0.885494, 0.005, (0.15 0 0.05)
0.876641, 0.005, (0.15 0 0.05)
0.868159, 0.005, (0.15 0 0.05)
0.860058, 0.005, (0.15 0 0.05)
0.85235, 0.005, (0.15 0 0.05)
0.845044, 0.005, (0.15 0 0.05)
0.838153, 0.005, (0.15 0 0.05)
0.831685, 0.005, (0.15 0 0.05)
0.825651, 0.005, (0.15 0 0.05)
0.820061, 0.005, (0.15 0 0.05)
0.814923, 0.005, (0.15 0 0.05)
0.810247, 0.005, (0.15 0 0.05)
0.80604, 0.005, (0.15 0 0.05)
0.802309, 0.005, (0.15 0 0.05)
0.799062, 0.005, (0.15 0 0.05)
0.796304, 0.005, (0.15 0 0.05)
0.79404, 0.005, (0.15 0 0.05)
0.792275, 0.005, (0.15 0 0.05)
0.791012, 0.005, (0.15 0 0.05)
0.790253, 0.005, (0.15 0 0.05)
0.79, 0.005, (0.15 0 0.05)
0.790253, 0.005, (0.15 0 0.05)
0.791012, 0.005, (0.15 0 0.05)
0.792275, 0.005, (0.15 0 0.05)
0.79404, 0.005, (0.15 0 0.05)
0.796304, 0.005, (0.15 0 0.05)
0.799062, 0.005, (0.15 0 0.05)
0.802309, 0.005, (0.15 0 0.05)
0.80604, 0.005, (0.15 0 0.05)
0.810247, 0.005, (0.15 0 0.05)
0.814923, 0.005, (0.15 0 0.05)
0.820061, 0.005, (0.15 0 0.05)
0.825651, 0.005, (0.15 0 0.05)
0.831685, 0.005, (0.15 0 0.05)
0.838153, 0.005, (0.15 0 0.05)
0.845044, 0.005, (0.15 0 0.05)
0.85235, 0.005, (0.15 0 0.05)
0.860058, 0.005, (0.15 0 0.05)
0.868159, 0.005, (0.15 0 0.05)
0.876641, 0.005, (0.15 0 0.05)
0.885494, 0.005, (0.15 0 0.05)
0.894707, 0.005, (0.15 0 0.05)
0.904268, 0.005, (0.15 0 0.05)
0.914166, 0.005, (0.15 0 0.05)
0.924392, 0.005, (0.15 0 0.05)
0.934933, 0.005, (0.15 0 0.05)
0.94578, 0.005, (0.15 0 0.05)
0.956922, 0.005, (0.15 0 0.05)
0.968349, 0.005, (0.15 0 0.05)
0.980051, 0.005, (0.15 0 0.05)
0.992018, 0.005, (0.15 0 0.05)
1.00424, 0.005, (0.15 0 0.05)
1.01671, 0.005, (0.15 0 0.05)
1.02942, 0.005, (0.15 0 0.05)
1.04235, 0.005, (0.15 0 0.05)
1.05551, 0.005, (0.15 0 0.05)
1.06888, 0.005, (0.15 0 0.05)
1.08245, 0.005, (0.15 0 0.05)
1.09622, 0.005, (0.15 0 0.05)
1.11018, 0.005, (0.15 0 0.05)
1.12432, 0.005, (0.15 0 0.05)
1.13864, 0.005, (0.15 0 0.05)
1.15313, 0.005, (0.15 0 0.05)
1.16778, 0.005, (0.15 0 0.05)
1.18258, 0.005, (0.15 0 0.05)
1.19754, 0.005, (0.15 0 0.05)
1.21264, 0.005, (0.15 0 0.05)
1.22788, 0.005, (0.15 0 0.05)
1.24326, 0.005, (0.15 0 0.05)
1.25877, 0.005, (0.15 0 0.05)
1.2744, 0.005, (0.15 0 0.05)
1.29016, 0.005, (0.15 0 0.05)
1.30602, 0.005, (0.15 0 0.05)
1.32201, 0.005, (0.15 0 0.05)
1.3381, 0.005, (0.15 0 0.05)
1.35429, 0.005, (0.15 0 0.05)
1.37058, 0.005, (0.15 0 0.05)
1.38698, 0.005, (0.15 0 0.05)
1.40346, 0.005, (0.15 0 0.05)
1.42004, 0.005, (0.15 0 0.05)
1.4367, 0.005, (0.15 0 0.05)
1.45344, 0.005, (0.15 0 0.05)
1.47027, 0.005, (0.15 0 0.05)
1.48718, 0.005, (0.15 0 0.05)
1.50416, 0.005, (0.15 0 0.05)
1.52122, 0.005, (0.15 0 0.05)
1.53834, 0.005, (0.15 0 0.05)
1.55554, 0.005, (0.15 0 0.05)
1.5728, 0.005, (0.15 0 0.05)
1.59013, 0.005, (0.15 0 0.05)
1.60751, 0.005, (0.15 0 0.05)
1.62496, 0.005, (0.15 0 0.05)
1.64247, 0.005, (0.15 0 0.05)
1.66003, 0.005, (0.15 0 0.05)
1.67765, 0.005, (0.15 0 0.05)
1.69532, 0.005, (0.15 0 0.05)
1.71304, 0.005, (0.15 0 0.05)
1.73081, 0.005, (0.15 0 0.05)
1.74863, 0.005, (0.15 0 0.05)
1.76649, 0.005, (0.15 0 0.05)
1.7844, 0.005, (0.15 0 0.05)
1.80236, 0.005, (0.15 0 0.05)
1.82036, 0.005, (0.15 0 0.05)
1.8384, 0.005, (0.15 0 0.05)
1.85648, 0.005, (0.15 0 0.05)
1.87459, 0.005, (0.15 0 0.05)
1.89275, 0.005, (0.15 0 0.05)
1.91094, 0.005, (0.15 0 0.05)
1.92917, 0.005, (0.15 0 0.05)
1.94743, 0.005, (0.15 0 0.05)
1.96573, 0.005, (0.15 0 0.05)
1.98406, 0.005, (0.15 0 0.05)
2.00242, 0.005, (0.15 0 0.05)
1.37568, 0.005, (0.15 0 0.05)
1.35915, 0.005, (0.15 0 0.05)
1.34272, 0.005, (0.15 0 0.05)
1.32639, 0.005, (0.15 0 0.05)
1.31015, 0.005, (0.15 0 0.05)
1.29402, 0.005, (0.15 0 0.05)
1.27801, 0.005, (0.15 0 0.05)
1.2621, 0.005, (0.15 0 0.05)
1.24631, 0.005, (0.15 0 0.05)
1.23065, 0.005, (0.15 0 0.05)
1.21511, 0.005, (0.15 0 0.05)
1.19971, 0.005, (0.15 0 0.05)
1.18444, 0.005, (0.15 0 0.05)
1.16932, 0.005, (0.15 0 0.05)
1.15434, 0.005, (0.15 0 0.05)
1.13952, 0.005, (0.15 0 0.05)
1.12486, 0.005, (0.15 0 0.05)
1.11036, 0.005, (0.15 0 0.05)
1.09604, 0.005, (0.15 0 0.05)
1.0819, 0.005, (0.15 0 0.05)
1.06794, 0.005, (0.15 0 0.05)
1.05418, 0.005, (0.15 0 0.05)
1.04062, 0.005, (0.15 0 0.05)
1.02728, 0.005, (0.15 0 0.05)
1.01415, 0.005, (0.15 0 0.05)
1.00125, 0.005, (0.15 0 0.05)
0.988585, 0.005, (0.15 0 0.05)
0.976166, 0.005, (0.15 0 0.05)
0.964002, 0.005, (0.15 0 0.05)
0.952103, 0.005, (0.15 0 0.05)
0.940479, 0.005, (0.15 0 0.05)
0.929139, 0.005, (0.15 0 0.05)
0.918096, 0.005, (0.15 0 0.05)
0.907359, 0.005, (0.15 0 0.05)
0.896939, 0.005, (0.15 0 0.05)
0.886848, 0.005, (0.15 0 0.05)
0.877097, 0.005, (0.15 0 0.05)
0.867698, 0.005, (0.15 0 0.05)
0.858662, 0.005, (0.15 0 0.05)
0.85, 0.005, (0.15 0 0.05)
0.841724, 0.005, (0.15 0 0.05)
0.833847, 0.005, (0.15 0 0.05)
0.826378, 0.005, (0.15 0 0.05)
0.819329, 0.005, (0.15 0 0.05)
0.812712, 0.005, (0.15 0 0.05)
0.806536, 0.005, (0.15 0 0.05)
0.800812, 0.005, (0.15 0 0.05)
0.79555, 0.005, (0.15 0 0.05)
0.790759, 0.005, (0.15 0 0.05)
0.786448, 0.005, (0.15 0 0.05)
0.782624, 0.005, (0.15 0 0.05)
0.779295, 0.005, (0.15 0 0.05)
0.776466, 0.005, (0.15 0 0.05)
0.774145, 0.005, (0.15 0 0.05)
0.772334, 0.005, (0.15 0 0.05)
0.771038, 0.005, (0.15 0 0.05)
0.77026, 0.005, (0.15 0 0.05)
0.77, 0.005, (0.15 0 0.05)
0.77026, 0.005, (0.15 0 0.05)
0.771038, 0.005, (0.15 0 0.05)
0.772334, 0.005, (0.15 0 0.05)
0.774145, 0.005, (0.15 0 0.05)
0.776466, 0.005, (0.15 0 0.05)
0.779295, 0.005, (0.15 0 0.05)
0.782624, 0.005, (0.15 0 0.05)
0.786448, 0.005, (0.15 0 0.05)
0.790759, 0.005, (0.15 0 0.05)
0.79555, 0.005, (0.15 0 0.05)
0.800812, 0.005, (0.15 0 0.05)
0.806536, 0.005, (0.15 0 0.05)
0.812712, 0.005, (0.15 0 0.05)
0.819329, 0.005, (0.15 0 0.05)
0.826378, 0.005, (0.15 0 0.05)
0.833847, 0.005, (0.15 0 0.05)
0.841724, 0.005, (0.15 0 0.05)
0.85, 0.005, (0.15 0 0.05)
0.858662, 0.005, (0.15 0 0.05)
0.867698, 0.005, (0.15 0 0.05)
0.877097, 0.005, (0.15 0 0.05)
0.886848, 0.005, (0.15 0 0.05)
0.896939, 0.005, (0.15 0 0.05)
0.907359, 0.005, (0.15 0 0.05)
0.918096, 0.005, (0.15 0 0.05)
0.929139, 0.005, (0.15 0 0.05)
0.940479, 0.005, (0.15 0 0.05)
0.952103, 0.005, (0.15 0 0.05)
0.964002, 0.005, (0.15 0 0.05)
0.976166, 0.005, (0.15 0 0.05)
0.988585, 0.005, (0.15 0 0.05)
1.00125, 0.005, (0.15 0 0.05)
1.01415, 0.005, (0.15 0 0.05)
1.02728, 0.005, (0.15 0 0.05)
1.04062, 0.005, (0.15 0 0.05)
1.05418, 0.005, (0.15 0 0.05)
1.06794, 0.005, (0.15 0 0.05)
1.0819, 0.005, (0.15 0 0.05)
1.09604, 0.005, (0.15 0 0.05)
1.11036, 0.005, (0.15 0 0.05)
1.12486, 0.005, (0.15 0 0.05)
1.13952, 0.005, (0.15 0 0.05)
1.15434, 0.005, (0.15 0 0.05)
1.16932, 0.005, (0.15 0 0.05)
1.18444, 0.005, (0.15 0 0.05)
1.19971, 0.005, (0.15 0 0.05)
1.21511, 0.005, (0.15 0 0.05)
1.23065, 0.005, (0.15 0 0.05)
1.24631, 0.005, (0.15 0 0.05)
1.2621, 0.005, (0.15 0 0.05)
1.27801, 0.005, (0.15 0 0.05)
1.29402, 0.005, (0.15 0 0.05)
1.31015, 0.005, (0.15 0 0.05)
1.32639, 0.005, (0.15 0 0.05)
1.34272, 0.005, (0.15 0 0.05)
1.35915, 0.005, (0.15 0 0.05)
1.37568, 0.005, (0.15 0 0.05)
1.3923, 0.005, (0.15 0 0.05)
1.40901, 0.005, (0.15 0 0.05)
1.4258, 0.005, (0.15 0 0.05)
1.44267, 0.005, (0.15 0 0.05)
1.45962, 0.005, (0.15 0 0.05)
1.47665, 0.005, (0.15 0 0.05)
1.49375, 0.005, (0.15 0 0.05)
1.51093, 0.005, (0.15 0 0.05)
1.52817, 0.005, (0.15 0 0.05)
1.54548, 0.005, (0.15 0 0.05)
1.56285, 0.005, (0.15 0 0.05)
1.58028, 0.005, (0.15 0 0.05)
1.59778, 0.005, (0.15 0 0.05)
1.61533, 0.005, (0.15 0 0.05)
1.63294, 0.005, (0.15 0 0.05)
1.65061, 0.005, (0.15 0 0.05)
1.66832, 0.005, (0.15 0 0.05)
1.68609, 0.005, (0.15 0 0.05)
1.70391, 0.005, (0.15 0 0.05)
1.72177, 0.005, (0.15 0 0.05)
1.73968, 0.005, (0.15 0 0.05)
1.75764, 0.005, (0.15 0 0.05)
1.77564, 0.005, (0.15 0 0.05)
1.79368, 0.005, (0.15 0 0.05)
1.81177, 0.005, (0.15 0 0.05)
1.82989, 0.005, (0.15 0 0.05)
1.84805, 0.005, (0.15 0 0.05)
1.86625, 0.005, (0.15 0 0.05)
1.88449, 0.005, (0.15 0 0.05)
1.90276, 0.005, (0.15 0 0.05)
1.92107, 0.005, (0.15 0 0.05)
1.93941, 0.005, (0.15 0 0.05)
1.95778, 0.005, (0.15 0 0.05)
1.97618, 0.005, (0.15 0 0.05)
1.99462, 0.005, (0.15 0 0.05)
1.36459, 0.005, (0.15 0 0.05)
1.34792, 0.005, (0.15 0 0.05)
1.33135, 0.005, (0.15 0 0.05)
1.31488, 0.005, (0.15 0 0.05)
1.2985, 0.005, (0.15 0 0.05)
1.28222, 0.005, (0.15 0 0.05)
1.26606, 0.005, (0.15 0 0.05)
1.25, 0.005, (0.15 0 0.05)
1.23406, 0.005, (0.15 0 0.05)
1.21824, 0.005, (0.15 0 0.05)
1.20254, 0.005, (0.15 0 0.05)
1.18697, 0.005, (0.15 0 0.05)
1.17154, 0.005, (0.15 0 0.05)
1.15624, 0.005, (0.15 0 0.05)
1.1411, 0.005, (0.15 0 0.05)
1.1261, 0.005, (0.15 0 0.05)
1.11126, 0.005, (0.15 0 0.05)
1.09659, 0.005, (0.15 0 0.05)
1.08208, 0.005, (0.15 0 0.05)
1.06775, 0.005, (0.15 0 0.05)
1.05361, 0.005, (0.15 0 0.05)
1.03966, 0.005, (0.15 0 0.05)
1.02591, 0.005, (0.15 0 0.05)
1.01237, 0.005, (0.15 0 0.05)
0.99905, 0.005, (0.15 0 0.05)
0.985951, 0.005, (0.15 0 0.05)
0.973088, 0.005, (0.15 0 0.05)
0.960469, 0.005, (0.15 0 0.05)
0.948103, 0.005, (0.15 0 0.05)
0.936002, 0.005, (0.15 0 0.05)
0.924175, 0.005, (0.15 0 0.05)
0.912634, 0.005, (0.15 0 0.05)
0.901388, 0.005, (0.15 0 0.05)
0.890449, 0.005, (0.15 0 0.05)
0.87983, 0.005, (0.15 0 0.05)
0.86954, 0.005, (0.15 0 0.05)
0.859593, 0.005, (0.15 0 0.05)
0.85, 0.005, (0.15 0 0.05)
0.840773, 0.005, (0.15 0 0.05)
0.831925, 0.005, (0.15 0 0.05)
0.823468, 0.005, (0.15 0 0.05)
0.815414, 0.005, (0.15 0 0.05)
0.807775, 0.005, (0.15 0 0.05)
0.800562, 0.005, (0.15 0 0.05)
0.793788, 0.005, (0.15 0 0.05)
0.787464, 0.005, (0.15 0 0.05)
0.781601, 0.005, (0.15 0 0.05)
0.776209, 0.005, (0.15 0 0.05)
0.771298, 0.005, (0.15 0 0.05)
0.766877, 0.005, (0.15 0 0.05)
0.762955, 0.005, (0.15 0 0.05)
0.759539, 0.005, (0.15 0 0.05)
0.756637, 0.005, (0.15 0 0.05)
0.754255, 0.005, (0.15 0 0.05)
0.752396, 0.005, (0.15 0 0.05)
0.751066, 0.005, (0.15 0 0.05)
0.750267, 0.005, (0.15 0 0.05)
0.75, 0.005, (0.15 0 0.05)
0.750267, 0.005, (0.15 0 0.05)
0.751066, 0.005, (0.15 0 0.05)
0.752396, 0.005, (0.15 0 0.05)
0.754255, 0.005, (0.15 0 0.05)
0.756637, 0.005, (0.15 0 0.05)
0.759539, 0.005, (0.15 0 0.05)
0.762955, 0.005, (0.15 0 0.05)
0.766877, 0.005, (0.15 0 0.05)
0.771298, 0.005, (0.15 0 0.05)
0.776209, 0.005, (0.15 0 0.05)
0.781601, 0.005, (0.15 0 0.05)
0.787464, 0.005, (0.15 0 0.05)
0.793788, 0.005, (0.15 0 0.05)
0.800562, 0.005, (0.15 0 0.05)
0.807775, 0.005, (0.15 0 0.05)
0.815414, 0.005, (0.15 0 0.05)
0.823468, 0.005, (0.15 0 0.05)
0.831925, 0.005, (0.15 0 0.05)
0.840773, 0.005, (0.15 0 0.05)
0.85, 0.005, (0.15 0 0.05)
0.859593, 0.005, (0.15 0 0.05)
0.86954, 0.005, (0.15 0 0.05)
0.87983, 0.005, (0.15 0 0.05)
0.890449, 0.005, (0.15 0 0.05)
0.901388, 0.005, (0.15 0 0.05)
0.912634, 0.005, (0.15 0 0.05)
0.924175, 0.005, (0.15 0 0.05)
0.936002, 0.005, (0.15 0 0.05)
0.948103, 0.005, (0.15 0 0.05)
0.960469, 0.005, (0.15 0 0.05)
0.973088, 0.005, (0.15 0 0.05)
0.985951, 0.005, (0.15 0 0.05)
0.99905, 0.005, (0.15 0 0.05)
1.01237, 0.005, (0.15 0 0.05)
1.02591, 0.005, (0.15 0 0.05)
1.03966, 0.005, (0.15 0 0.05)
1.05361, 0.005, (0.15 0 0.05)
1.06775, 0.005, (0.15 0 0.05)
1.08208, 0.005, (0.15 0 0.05)
1.09659, 0.005, (0.15 0 0.05)
1.11126, 0.005, (0.15 0 0.05)
1.1261, 0.005, (0.15 0 0.05)
1.1411, 0.005, (0.15 0 0.05)
1.15624, 0.005, (0.15 0 0.05)
1.17154, 0.005, (0.15 0 0.05)
1.18697, 0.005, (0.15 0 0.05)
1.20254, 0.005, (0.15 0 0.05)
1.21824, 0.005, (0.15 0 0.05)
1.23406, 0.005, (0.15 0 0.05)
1.25, 0.005, (0.15 0 0.05)
1.26606, 0.005, (0.15 0 0.05)
1.28222, 0.005, (0.15 0 0.05)
1.2985, 0.005, (0.15 0 0.05)
1.31488, 0.005, (0.15 0 0.05)
1.33135, 0.005, (0.15 0 0.05)
1.34792, 0.005, (0.15 0 0.05)
1.36459, 0.005, (0.15 0 0.05)
1.38134, 0.005, (0.15 0 0.05)
1.39818, 0.005, (0.15 0 0.05)
1.4151, 0.005, (0.15 0 0.05)
1.4321, 0.005, (0.15 0 0.05)
1.44917, 0.005, (0.15 0 0.05)
1.46632, 0.005, (0.15 0 0.05)
1.48354, 0.005, (0.15 0 0.05)
1.50083, 0.005, (0.15 0 0.05)
1.51819, 0.005, (0.15 0 0.05)
1.53561, 0.005, (0.15 0 0.05)
1.55309, 0.005, (0.15 0 0.05)
1.57064, 0.005, (0.15 0 0.05)
1.58824, 0.005, (0.15 0 0.05)
1.6059, 0.005, (0.15 0 0.05)
1.62361, 0.005, (0.15 0 0.05)
1.64137, 0.005, (0.15 0 0.05)
1.65919, 0.005, (0.15 0 0.05)
1.67705, 0.005, (0.15 0 0.05)
1.69496, 0.005, (0.15 0 0.05)
1.71292, 0.005, (0.15 0 0.05)
1.73092, 0.005, (0.15 0 0.05)
1.74897, 0.005, (0.15 0 0.05)
1.76706, 0.005, (0.15 0 0.05)
1.78519, 0.005, (0.15 0 0.05)
1.80336, 0.005, (0.15 0 0.05)
1.82157, 0.005, (0.15 0 0.05)
1.83981, 0.005, (0.15 0 0.05)
1.85809, 0.005, (0.15 0 0.05)
1.87641, 0.005, (0.15 0 0.05)
1.89476, 0.005, (0.15 0 0.05)
1.91314, 0.005, (0.15 0 0.05)
1.93155, 0.005, (0.15 0 0.05)
1.95, 0.005, (0.15 0 0.05)
1.96848, 0.005, (0.15 0 0.05)
1.98698, 0.005, (0.15 0 0.05)
1.3537, 0.005, (0.15 0 0.05)
1.3369, 0.005, (0.15 0 0.05)
1.32019, 0.005, (0.15 0 0.05)
1.30357, 0.005, (0.15 0 0.05)
1.28705, 0.005, (0.15 0 0.05)
1.27063, 0.005, (0.15 0 0.05)
1.25431, 0.005, (0.15 0 0.05)
1.2381, 0.005, (0.15 0 0.05)
1.22201, 0.005, (0.15 0 0.05)
1.20603, 0.005, (0.15 0 0.05)
1.19017, 0.005, (0.15 0 0.05)
1.17444, 0.005, (0.15 0 0.05)
1.15884, 0.005, (0.15 0 0.05)
1.14337, 0.005, (0.15 0 0.05)
1.12805, 0.005, (0.15 0 0.05)
1.11288, 0.005, (0.15 0 0.05)
1.09786, 0.005, (0.15 0 0.05)
1.08301, 0.005, (0.15 0 0.05)
1.06832, 0.005, (0.15 0 0.05)
1.0538, 0.005, (0.15 0 0.05)
1.03947, 0.005, (0.15 0 0.05)
1.02533, 0.005, (0.15 0 0.05)
1.01139, 0.005, (0.15 0 0.05)
0.997647, 0.005, (0.15 0 0.05)
0.984124, 0.005, (0.15 0 0.05)
0.970824, 0.005, (0.15 0 0.05)
0.957758, 0.005, (0.15 0 0.05)
0.944934, 0.005, (0.15 0 0.05)
0.932363, 0.005, (0.15 0 0.05)
0.920054, 0.005, (0.15 0 0.05)
0.90802, 0.005, (0.15 0 0.05)
0.89627, 0.005, (0.15 0 0.05)
0.884816, 0.005, (0.15 0 0.05)
0.87367, 0.005, (0.15 0 0.05)
0.862844, 0.005, (0.15 0 0.05)
0.85235, 0.005, (0.15 0 0.05)
0.8422, 0.005, (0.15 0 0.05)
0.832406, 0.005, (0.15 0 0.05)
0.822982, 0.005, (0.15 0 0.05)
0.813941, 0.005, (0.15 0 0.05)
0.805295, 0.005, (0.15 0 0.05)
0.797057, 0.005, (0.15 0 0.05)
0.78924, 0.005, (0.15 0 0.05)
0.781857, 0.005, (0.15 0 0.05)
0.774919, 0.005, (0.15 0 0.05)
0.76844, 0.005, (0.15 0 0.05)
0.76243, 0.005, (0.15 0 0.05)
0.756902, 0.005, (0.15 0 0.05)
0.751864, 0.005, (0.15 0 0.05)
0.747329, 0.005, (0.15 0 0.05)
0.743303, 0.005, (0.15 0 0.05)
0.739797, 0.005, (0.15 0 0.05)
0.736817, 0.005, (0.15 0 0.05)
0.73437, 0.005, (0.15 0 0.05)
0.732462, 0.005, (0.15 0 0.05)
0.731095, 0.005, (0.15 0 0.05)
0.730274, 0.005, (0.15 0 0.05)
0.73, 0.005, (0.15 0 0.05)
0.730274, 0.005, (0.15 0 0.05)
0.731095, 0.005, (0.15 0 0.05)
0.732462, 0.005, (0.15 0 0.05)
0.73437, 0.005, (0.15 0 0.05)
0.736817, 0.005, (0.15 0 0.05)
0.739797, 0.005, (0.15 0 0.05)
0.743303, 0.005, (0.15 0 0.05)
0.747329, 0.005, (0.15 0 0.05)
0.751864, 0.005, (0.15 0 0.05)
0.756902, 0.005, (0.15 0 0.05)
0.76243, 0.005, (0.15 0 0.05)
0.76844, 0.005, (0.15 0 0.05)
0.774919, 0.005, (0.15 0 0.05)
0.781857, 0.005, (0.15 0 0.05)
0.78924, 0.005, (0.15 0 0.05)
0.797057, 0.005, (0.15 0 0.05)
0.805295, 0.005, (0.15 0 0.05)
0.813941, 0.005, (0.15 0 0.05)
0.822982, 0.005, (0.15 0 0.05)
0.832406, 0.005, (0.15 0 0.05)
0.8422, 0.005, (0.15 0 0.05)
0.85235, 0.005, (0.15 0 0.05)
0.862844, 0.005, (0.15 0 0.05)
0.87367, 0.005, (0.15 0 0.05)
0.884816, 0.005, (0.15 0 0.05)
0.89627, 0.005, (0.15 0 0.05)
0.90802, 0.005, (0.15 0 0.05)
0.920054, 0.005, (0.15 0 0.05)
0.932363, 0.005, (0.15 0 0.05)
0.944934, 0.005, (0.15 0 0.05)
0.957758, 0.005, (0.15 0 0.05)
0.970824, 0.005, (0.15 0 0.05)
0.984124, 0.005, (0.15 0 0.05)
0.997647, 0.005, (0.15 0 0.05)
1.01139, 0.005, (0.15 0 0.05)
1.02533, 0.005, (0.15 0 0.05)
1.03947, 0.005, (0.15 0 0.05)
1.0538, 0.005, (0.15 0 0.05)
1.06832, 0.005, (0.15 0 0.05)
1.08301, 0.005, (0.15 0 0.05)
1.09786, 0.005, (0.15 0 0.05)
1.11288, 0.005, (0.15 0 0.05)
1.12805, 0.005, (0.15 0 0.05)
1.14337, 0.005, (0.15 0 0.05)
1.15884, 0.005, (0.15 0 0.05)
1.17444, 0.005, (0.15 0 0.05)
1.19017, 0.005, (0.15 0 0.05)
1.20603, 0.005, (0.15 0 0.05)
1.22201, 0.005, (0.15 0 0.05)
1.2381, 0.005, (0.15 0 0.05)
1.25431, 0.005, (0.15 0 0.05)
1.27063, 0.005, (0.15 0 0.05)
1.28705, 0.005, (0.15 0 0.05)
1.30357, 0.005, (0.15 0 0.05)
1.32019, 0.005, (0.15 0 0.05)
1.3369, 0.005, (0.15 0 0.05)
1.3537, 0.005, (0.15 0 0.05)
1.37058, 0.005, (0.15 0 0.05)
1.38755, 0.005, (0.15 0 0.05)
1.4046, 0.005, (0.15 0 0.05)
1.42172, 0.005, (0.15 0 0.05)
1.43892, 0.005, (0.15 0 0.05)
1.45619, 0.005, (0.15 0 0.05)
1.47353, 0.005, (0.15 0 0.05)
1.49094, 0.005, (0.15 0 0.05)
1.50841, 0.005, (0.15 0 0.05)
1.52594, 0.005, (0.15 0 0.05)
1.54353, 0.005, (0.15 0 0.05)
1.56119, 0.005, (0.15 0 0.05)
1.57889, 0.005, (0.15 0 0.05)
1.59665, 0.005, (0.15 0 0.05)
1.61447, 0.005, (0.15 0 0.05)
1.63233, 0.005, (0.15 0 0.05)
1.65024, 0.005, (0.15 0 0.05)
1.6682, 0.005, (0.15 0 0.05)
1.68621, 0.005, (0.15 0 0.05)
1.70426, 0.005, (0.15 0 0.05)
1.72235, 0.005, (0.15 0 0.05)
1.74049, 0.005, (0.15 0 0.05)
1.75866, 0.005, (0.15 0 0.05)
1.77688, 0.005, (0.15 0 0.05)
1.79513, 0.005, (0.15 0 0.05)
1.81342, 0.005, (0.15 0 0.05)
1.83175, 0.005, (0.15 0 0.05)
1.85011, 0.005, (0.15 0 0.05)
1.8685, 0.005, (0.15 0 0.05)
1.88693, 0.005, (0.15 0 0.05)
1.90539, 0.005, (0.15 0 0.05)
1.92388, 0.005, (0.15 0 0.05)
1.9424, 0.005, (0.15 0 0.05)
1.96094, 0.005, (0.15 0 0.05)
1.97952, 0.005, (0.15 0 0.05)
1.34302, 0.005, (0.15 0 0.05)
1.32608, 0.005, (0.15 0 0.05)
1.30924, 0.005, (0.15 0 0.05)
1.29248, 0.005, (0.15 0 0.05)
1.27581, 0.005, (0.15 0 0.05)
1.25925, 0.005, (0.15 0 0.05)
1.24278, 0.005, (0.15 0 0.05)
1.22642, 0.005, (0.15 0 0.05)
1.21017, 0.005, (0.15 0 0.05)
1.19403, 0.005, (0.15 0 0.05)
1.17801, 0.005, (0.15 0 0.05)
1.16211, 0.005, (0.15 0 0.05)
1.14634, 0.005, (0.15 0 0.05)
1.13071, 0.005, (0.15 0 0.05)
1.11521, 0.005, (0.15 0 0.05)
1.09986, 0.005, (0.15 0 0.05)
1.08467, 0.005, (0.15 0 0.05)
1.06963, 0.005, (0.15 0 0.05)
1.05475, 0.005, (0.15 0 0.05)
1.04005, 0.005, (0.15 0 0.05)
1.02552, 0.005, (0.15 0 0.05)
1.01119, 0.005, (0.15 0 0.05)
0.997046, 0.005, (0.15 0 0.05)
0.983107, 0.005, (0.15 0 0.05)
0.969381, 0.005, (0.15 0 0.05)
0.955877, 0.005, (0.15 0 0.05)
0.942603, 0.005, (0.15 0 0.05)
0.92957, 0.005, (0.15 0 0.05)
0.916788, 0.005, (0.15 0 0.05)
0.904268, 0.005, (0.15 0 0.05)
0.89202, 0.005, (0.15 0 0.05)
0.880057, 0.005, (0.15 0 0.05)
0.868389, 0.005, (0.15 0 0.05)
0.85703, 0.005, (0.15 0 0.05)
0.845991, 0.005, (0.15 0 0.05)
0.835284, 0.005, (0.15 0 0.05)
0.824924, 0.005, (0.15 0 0.05)
0.814923, 0.005, (0.15 0 0.05)
0.805295, 0.005, (0.15 0 0.05)
0.796053, 0.005, (0.15 0 0.05)
0.78721, 0.005, (0.15 0 0.05)
0.778781, 0.005, (0.15 0 0.05)
0.770779, 0.005, (0.15 0 0.05)
0.763217, 0.005, (0.15 0 0.05)
0.756108, 0.005, (0.15 0 0.05)
0.749466, 0.005, (0.15 0 0.05)
0.743303, 0.005, (0.15 0 0.05)
0.737631, 0.005, (0.15 0 0.05)
0.732462, 0.005, (0.15 0 0.05)
0.727805, 0.005, (0.15 0 0.05)
0.723671, 0.005, (0.15 0 0.05)
0.720069, 0.005, (0.15 0 0.05)
0.717008, 0.005, (0.15 0 0.05)
0.714493, 0.005, (0.15 0 0.05)
0.712531, 0.005, (0.15 0 0.05)
0.711126, 0.005, (0.15 0 0.05)
0.710282, 0.005, (0.15 0 0.05)
0.71, 0.005, (0.15 0 0.05)
0.710282, 0.005, (0.15 0 0.05)
0.711126, 0.005, (0.15 0 0.05)
0.712531, 0.005, (0.15 0 0.05)
0.714493, 0.005, (0.15 0 0.05)
0.717008, 0.005, (0.15 0 0.05)
0.720069, 0.005, (0.15 0 0.05)
0.723671, 0.005, (0.15 0 0.05)
0.727805, 0.005, (0.15 0 0.05)
0.732462, 0.005, (0.15 0 0.05)
0.737631, 0.005, (0.15 0 0.05)
0.743303, 0.005, (0.15 0 0.05)
0.749466, 0.005, (0.15 0 0.05)
0.756108, 0.005, (0.15 0 0.05)
0.763217, 0.005, (0.15 0 0.05)
0.770779, 0.005, (0.15 0 0.05)
0.778781, 0.005, (0.15 0 0.05)
0.78721, 0.005, (0.15 0 0.05)
0.796053, 0.005, (0.15 0 0.05)
0.805295, 0.005, (0.15 0 0.05)
0.814923, 0.005, (0.15 0 0.05)
0.824924, 0.005, (0.15 0 0.05)
0.835284, 0.005, (0.15 0 0.05)
0.845991, 0.005, (0.15 0 0.05)
0.85703, 0.005, (0.15 0 0.05)
0.868389, 0.005, (0.15 0 0.05)
0.880057, 0.005, (0.15 0 0.05)
0.89202, 0.005, (0.15 0 0.05)
0.904268, 0.005, (0.15 0 0.05)
0.916788, 0.005, (0.15 0 0.05)
0.92957, 0.005, (0.15 0 0.05)
0.942603, 0.005, (0.15 0 0.05)
0.955877, 0.005, (0.15 0 0.05)
0.969381, 0.005, (0.15 0 0.05)
0.983107, 0.005, (0.15 0 0.05)
0.997046, 0.005, (0.15 0 0.05)
1.01119, 0.005, (0.15 0 0.05)
1.02552, 0.005, (0.15 0 0.05)
1.04005, 0.005, (0.15 0 0.05)
1.05475, 0.005, (0.15 0 0.05)
1.06963, 0.005, (0.15 0 0.05)
1.08467, 0.005, (0.15 0 0.05)
1.09986, 0.005, (0.15 0 0.05)
1.11521, 0.005, (0.15 0 0.05)
1.13071, 0.005, (0.15 0 0.05)
1.14634, 0.005, (0.15 0 0.05)
1.16211, 0.005, (0.15 0 0.05)
1.17801, 0.005, (0.15 0 0.05)
1.19403, 0.005, (0.15 0 0.05)
1.21017, 0.005, (0.15 0 0.05)
1.22642, 0.005, (0.15 0 0.05)
1.24278, 0.005, (0.15 0 0.05)
1.25925, 0.005, (0.15 0 0.05)
1.27581, 0.005, (0.15 0 0.05)
1.29248, 0.005, (0.15 0 0.05)
1.30924, 0.005, (0.15 0 0.05)
1.32608, 0.005, (0.15 0 0.05)
1.34302, 0.005, (0.15 0 0.05)
1.36004, 0.005, (0.15 0 0.05)
1.37713, 0.005, (0.15 0 0.05)
1.39431, 0.005, (0.15 0 0.05)
1.41156, 0.005, (0.15 0 0.05)
1.42888, 0.005, (0.15 0 0.05)
1.44627, 0.005, (0.15 0 0.05)
1.46373, 0.005, (0.15 0 0.05)
1.48125, 0.005, (0.15 0 0.05)
1.49883, 0.005, (0.15 0 0.05)
1.51648, 0.005, (0.15 0 0.05)
1.53418, 0.005, (0.15 0 0.05)
1.55193, 0.005, (0.15 0 0.05)
1.56975, 0.005, (0.15 0 0.05)
1.58761, 0.005, (0.15 0 0.05)
1.60552, 0.005, (0.15 0 0.05)
1.62348, 0.005, (0.15 0 0.05)
1.64149, 0.005, (0.15 0 0.05)
1.65955, 0.005, (0.15 0 0.05)
1.67765, 0.005, (0.15 0 0.05)
1.69579, 0.005, (0.15 0 0.05)
1.71397, 0.005, (0.15 0 0.05)
1.7322, 0.005, (0.15 0 0.05)
1.75046, 0.005, (0.15 0 0.05)
1.76876, 0.005, (0.15 0 0.05)
1.78709, 0.005, (0.15 0 0.05)
1.80546, 0.005, (0.15 0 0.05)
1.82387, 0.005, (0.15 0 0.05)
1.84231, 0.005, (0.15 0 0.05)
1.86078, 0.005, (0.15 0 0.05)
1.87928, 0.005, (0.15 0 0.05)
1.89781, 0.005, (0.15 0 0.05)
1.91638, 0.005, (0.15 0 0.05)
1.93497, 0.005, (0.15 0 0.05)
1.95359, 0.005, (0.15 0 0.05)
1.97223, 0.005, (0.15 0 0.05)
1.33255, 0.005, (0.15 0 0.05)
1.31548, 0.005, (0.15 0 0.05)
1.2985, 0.005, (0.15 0 0.05)
1.2816, 0.005, (0.15 0 0.05)
1.26479, 0.005, (0.15 0 0.05)
1.24808, 0.005, (0.15 0 0.05)
1.23146, 0.005, (0.15 0 0.05)
1.21495, 0.005, (0.15 0 0.05)
1.19854, 0.005, (0.15 0 0.05)
1.18224, 0.005, (0.15 0 0.05)
1.16606, 0.005, (0.15 0 0.05)
1.15, 0.005, (0.15 0 0.05)
1.13406, 0.005, (0.15 0 0.05)
1.11826, 0.005, (0.15 0 0.05)
1.10259, 0.005, (0.15 0 0.05)
1.08706, 0.005, (0.15 0 0.05)
1.07168, 0.005, (0.15 0 0.05)
1.05646, 0.005, (0.15 0 0.05)
1.04139, 0.005, (0.15 0 0.05)
1.0265, 0.005, (0.15 0 0.05)
1.01178, 0.005, (0.15 0 0.05)
0.997246, 0.005, (0.15 0 0.05)
0.982904, 0.005, (0.15 0 0.05)
0.968762, 0.005, (0.15 0 0.05)
0.95483, 0.005, (0.15 0 0.05)
0.941116, 0.005, (0.15 0 0.05)
0.927631, 0.005, (0.15 0 0.05)
0.914385, 0.005, (0.15 0 0.05)
0.901388, 0.005, (0.15 0 0.05)
0.888651, 0.005, (0.15 0 0.05)
0.876185, 0.005, (0.15 0 0.05)
0.864002, 0.005, (0.15 0 0.05)
0.852115, 0.005, (0.15 0 0.05)
0.840536, 0.005, (0.15 0 0.05)
0.829277, 0.005, (0.15 0 0.05)
0.818352, 0.005, (0.15 0 0.05)
0.807775, 0.005, (0.15 0 0.05)
0.797559, 0.005, (0.15 0 0.05)
0.787718, 0.005, (0.15 0 0.05)
0.778267, 0.005, (0.15 0 0.05)
0.76922, 0.005, (0.15 0 0.05)
0.760592, 0.005, (0.15 0 0.05)
0.752396, 0.005, (0.15 0 0.05)
0.744648, 0.005, (0.15 0 0.05)
0.73736, 0.005, (0.15 0 0.05)
0.730548, 0.005, (0.15 0 0.05)
0.724224, 0.005, (0.15 0 0.05)
0.718401, 0.005, (0.15 0 0.05)
0.713092, 0.005, (0.15 0 0.05)
0.708308, 0.005, (0.15 0 0.05)
0.70406, 0.005, (0.15 0 0.05)
0.700357, 0.005, (0.15 0 0.05)
0.697209, 0.005, (0.15 0 0.05)
0.694622, 0.005, (0.15 0 0.05)
0.692604, 0.005, (0.15 0 0.05)
0.691158, 0.005, (0.15 0 0.05)
0.69029, 0.005, (0.15 0 0.05)
0.69, 0.005, (0.15 0 0.05)
0.69029, 0.005, (0.15 0 0.05)
0.691158, 0.005, (0.15 0 0.05)
0.692604, 0.005, (0.15 0 0.05)
0.694622, 0.005, (0.15 0 0.05)
0.697209, 0.005, (0.15 0 0.05)
0.700357, 0.005, (0.15 0 0.05)
0.70406, 0.005, (0.15 0 0.05)
0.708308, 0.005, (0.15 0 0.05)
0.713092, 0.005, (0.15 0 0.05)
0.718401, 0.005, (0.15 0 0.05)
0.724224, 0.005, (0.15 0 0.05)
0.730548, 0.005, (0.15 0 0.05)
0.73736, 0.005, (0.15 0 0.05)
0.744648, 0.005, (0.15 0 0.05)
0.752396, 0.005, (0.15 0 0.05)
0.760592, 0.005, (0.15 0 0.05)
0.76922, 0.005, (0.15 0 0.05)
0.778267, 0.005, (0.15 0 0.05)
0.787718, 0.005, (0.15 0 0.05)
0.797559, 0.005, (0.15 0 0.05)
0.807775, 0.005, (0.15 0 0.05)
0.818352, 0.005, (0.15 0 0.05)
0.829277, 0.005, (0.15 0 0.05)
0.840536, 0.005, (0.15 0 0.05)
0.852115, 0.005, (0.15 0 0.05)
0.864002, 0.005, (0.15 0 0.05)
0.876185, 0.005, (0.15 0 0.05)
0.888651, 0.005, (0.15 0 0.05)
0.901388, 0.005, (0.15 0 0.05)
0.914385, 0.005, (0.15 0 0.05)
0.927631, 0.005, (0.15 0 0.05)
0.941116, 0.005, (0.15 0 0.05)
0.95483, 0.005, (0.15 0 0.05)
0.968762, 0.005, (0.15 0 0.05)
0.982904, 0.005, (0.15 0 0.05)
0.997246, 0.005, (0.15 0 0.05)
1.01178, 0.005, (0.15 0 0.05)
1.0265, 0.005, (0.15 0 0.05)
1.04139, 0.005, (0.15 0 0.05)
1.05646, 0.005, (0.15 0 0.05)
1.07168, 0.005, (0.15 0 0.05)
1.08706, 0.005, (0.15 0 0.05)
1.10259, 0.005, (0.15 0 0.05)
1.11826, 0.005, (0.15 0 0.05)
1.13406, 0.005, (0.15 0 0.05)
1.15, 0.005, (0.15 0 0.05)
1.16606, 0.005, (0.15 0 0.05)
1.18224, 0.005, (0.15 0 0.05)
1.19854, 0.005, (0.15 0 0.05)
1.21495, 0.005, (0.15 0 0.05)
1.23146, 0.005, (0.15 0 0.05)
1.24808, 0.005, (0.15 0 0.05)
1.26479, 0.005, (0.15 0 0.05)
1.2816, 0.005, (0.15 0 0.05)
1.2985, 0.005, (0.15 0 0.05)
1.31548, 0.005, (0.15 0 0.05)
1.33255, 0.005, (0.15 0 0.05)
1.3497, 0.005, (0.15 0 0.05)
1.36693, 0.005, (0.15 0 0.05)
1.38423, 0.005, (0.15 0 0.05)
1.40161, 0.005, (0.15 0 0.05)
1.41905, 0.005, (0.15 0 0.05)
1.43656, 0.005, (0.15 0 0.05)
1.45413, 0.005, (0.15 0 0.05)
1.47177, 0.005, (0.15 0 0.05)
1.48946, 0.005, (0.15 0 0.05)
1.50722, 0.005, (0.15 0 0.05)
1.52502, 0.005, (0.15 0 0.05)
1.54289, 0.005, (0.15 0 0.05)
1.5608, 0.005, (0.15 0 0.05)
1.57877, 0.005, (0.15 0 0.05)
1.59678, 0.005, (0.15 0 0.05)
1.61484, 0.005, (0.15 0 0.05)
1.63294, 0.005, (0.15 0 0.05)
1.65109, 0.005, (0.15 0 0.05)
1.66928, 0.005, (0.15 0 0.05)
1.68751, 0.005, (0.15 0 0.05)
1.70578, 0.005, (0.15 0 0.05)
1.72409, 0.005, (0.15 0 0.05)
1.74244, 0.005, (0.15 0 0.05)
1.76082, 0.005, (0.15 0 0.05)
1.77924, 0.005, (0.15 0 0.05)
1.79769, 0.005, (0.15 0 0.05)
1.81618, 0.005, (0.15 0 0.05)
1.83469, 0.005, (0.15 0 0.05)
1.85324, 0.005, (0.15 0 0.05)
1.87182, 0.005, (0.15 0 0.05)
1.89042, 0.005, (0.15 0 0.05)
1.90906, 0.005, (0.15 0 0.05)
1.92772, 0.005, (0.15 0 0.05)
1.94641, 0.005, (0.15 0 0.05)
1.96512, 0.005, (0.15 0 0.05)
1.32231, 0.005, (0.15 0 0.05)
1.30511, 0.005, (0.15 0 0.05)
1.28798, 0.005, (0.15 0 0.05)
1.27094, 0.005, (0.15 0 0.05)
1.25399, 0.005, (0.15 0 0.05)
1.23713, 0.005, (0.15 0 0.05)
1.22037, 0.005, (0.15 0 0.05)
1.2037, 0.005, (0.15 0 0.05)
1.18714, 0.005, (0.15 0 0.05)
1.17068, 0.005, (0.15 0 0.05)
1.15434, 0.005, (0.15 0 0.05)
1.13811, 0.005, (0.15 0 0.05)
1.12201, 0.005, (0.15 0 0.05)
1.10603, 0.005, (0.15 0 0.05)
1.09018, 0.005, (0.15 0 0.05)
1.07448, 0.005, (0.15 0 0.05)
1.05891, 0.005, (0.15 0 0.05)
1.0435, 0.005, (0.15 0 0.05)
1.02825, 0.005, (0.15 0 0.05)
1.01316, 0.005, (0.15 0 0.05)
0.998248, 0.005, (0.15 0 0.05)
0.983514, 0.005, (0.15 0 0.05)
0.968969, 0.005, (0.15 0 0.05)
0.95462, 0.005, (0.15 0 0.05)
0.940479, 0.005, (0.15 0 0.05)
0.926553, 0.005, (0.15 0 0.05)
0.912853, 0.005, (0.15 0 0.05)
0.899389, 0.005, (0.15 0 0.05)
0.886172, 0.005, (0.15 0 0.05)
0.873212, 0.005, (0.15 0 0.05)
0.860523, 0.005, (0.15 0 0.05)
0.848116, 0.005, (0.15 0 0.05)
0.836002, 0.005, (0.15 0 0.05)
0.824197, 0.005, (0.15 0 0.05)
0.812712, 0.005, (0.15 0 0.05)
0.801561, 0.005, (0.15 0 0.05)
0.790759, 0.005, (0.15 0 0.05)
0.78032, 0.005, (0.15 0 0.05)
0.77026, 0.005, (0.15 0 0.05)
0.760592, 0.005, (0.15 0 0.05)
0.751332, 0.005, (0.15 0 0.05)
0.742496, 0.005, (0.15 0 0.05)
0.734098, 0.005, (0.15 0 0.05)
0.726154, 0.005, (0.15 0 0.05)
0.718679, 0.005, (0.15 0 0.05)
0.711688, 0.005, (0.15 0 0.05)
0.705195, 0.005, (0.15 0 0.05)
0.699214, 0.005, (0.15 0 0.05)
0.693758, 0.005, (0.15 0 0.05)
0.68884, 0.005, (0.15 0 0.05)
0.684471, 0.005, (0.15 0 0.05)
0.680661, 0.005, (0.15 0 0.05)
0.677422, 0.005, (0.15 0 0.05)
0.674759, 0.005, (0.15 0 0.05)
0.672681, 0.005, (0.15 0 0.05)
0.671193, 0.005, (0.15 0 0.05)
0.670298, 0.005, (0.15 0 0.05)
0.67, 0.005, (0.15 0 0.05)
0.670298, 0.005, (0.15 0 0.05)
0.671193, 0.005, (0.15 0 0.05)
0.672681, 0.005, (0.15 0 0.05)
0.674759, 0.005, (0.15 0 0.05)
0.677422, 0.005, (0.15 0 0.05)
0.680661, 0.005, (0.15 0 0.05)
0.684471, 0.005, (0.15 0 0.05)
0.68884, 0.005, (0.15 0 0.05)
0.693758, 0.005, (0.15 0 0.05)
0.699214, 0.005, (0.15 0 0.05)
0.705195, 0.005, (0.15 0 0.05)
0.711688, 0.005, (0.15 0 0.05)
0.718679, 0.005, (0.15 0 0.05)
0.726154, 0.005, (0.15 0 0.05)
0.734098, 0.005, (0.15 0 0.05)
0.742496, 0.005, (0.15 0 0.05)
0.751332, 0.005, (0.15 0 0.05)
0.760592, 0.005, (0.15 0 0.05)
0.77026, 0.005, (0.15 0 0.05)
0.78032, 0.005, (0.15 0 0.05)
0.790759, 0.005, (0.15 0 0.05)
0.801561, 0.005, (0.15 0 0.05)
0.812712, 0.005, (0.15 0 0.05)
0.824197, 0.005, (0.15 0 0.05)
0.836002, 0.005, (0.15 0 0.05)
0.848116, 0.005, (0.15 0 0.05)
0.860523, 0.005, (0.15 0 0.05)
0.873212, 0.005, (0.15 0 0.05)
0.886172, 0.005, (0.15 0 0.05)
0.899389, 0.005, (0.15 0 0.05)
0.912853, 0.005, (0.15 0 0.05)
0.926553, 0.005, (0.15 0 0.05)
0.940479, 0.005, (0.15 0 0.05)
0.95462, 0.005, (0.15 0 0.05)
0.968969, 0.005, (0.15 0 0.05)
0.983514, 0.005, (0.15 0 0.05)
0.998248, 0.005, (0.15 0 0.05)
1.01316, 0.005, (0.15 0 0.05)
1.02825, 0.005, (0.15 0 0.05)
1.0435, 0.005, (0.15 0 0.05)
1.05891, 0.005, (0.15 0 0.05)
1.07448, 0.005, (0.15 0 0.05)
1.09018, 0.005, (0.15 0 0.05)
1.10603, 0.005, (0.15 0 0.05)
1.12201, 0.005, (0.15 0 0.05)
1.13811, 0.005, (0.15 0 0.05)
1.15434, 0.005, (0.15 0 0.05)
1.17068, 0.005, (0.15 0 0.05)
1.18714, 0.005, (0.15 0 0.05)
1.2037, 0.005, (0.15 0 0.05)
1.22037, 0.005, (0.15 0 0.05)
1.23713, 0.005, (0.15 0 0.05)
1.25399, 0.005, (0.15 0 0.05)
1.27094, 0.005, (0.15 0 0.05)
1.28798, 0.005, (0.15 0 0.05)
1.30511, 0.005, (0.15 0 0.05)
1.32231, 0.005, (0.15 0 0.05)
1.33959, 0.005, (0.15 0 0.05)
1.35695, 0.005, (0.15 0 0.05)
1.37437, 0.005, (0.15 0 0.05)
1.39187, 0.005, (0.15 0 0.05)
1.40943, 0.005, (0.15 0 0.05)
1.42706, 0.005, (0.15 0 0.05)
1.44475, 0.005, (0.15 0 0.05)
1.4625, 0.005, (0.15 0 0.05)
1.4803, 0.005, (0.15 0 0.05)
1.49817, 0.005, (0.15 0 0.05)
1.51608, 0.005, (0.15 0 0.05)
1.53405, 0.005, (0.15 0 0.05)
1.55206, 0.005, (0.15 0 0.05)
1.57013, 0.005, (0.15 0 0.05)
1.58824, 0.005, (0.15 0 0.05)
1.60639, 0.005, (0.15 0 0.05)
1.62459, 0.005, (0.15 0 0.05)
1.64283, 0.005, (0.15 0 0.05)
1.66111, 0.005, (0.15 0 0.05)
1.67943, 0.005, (0.15 0 0.05)
1.69779, 0.005, (0.15 0 0.05)
1.71619, 0.005, (0.15 0 0.05)
1.73462, 0.005, (0.15 0 0.05)
1.75308, 0.005, (0.15 0 0.05)
1.77158, 0.005, (0.15 0 0.05)
1.79011, 0.005, (0.15 0 0.05)
1.80867, 0.005, (0.15 0 0.05)
1.82727, 0.005, (0.15 0 0.05)
1.84589, 0.005, (0.15 0 0.05)
1.86454, 0.005, (0.15 0 0.05)
1.88322, 0.005, (0.15 0 0.05)
1.90192, 0.005, (0.15 0 0.05)
1.92065, 0.005, (0.15 0 0.05)
1.93941, 0.005, (0.15 0 0.05)
1.95819, 0.005, (0.15 0 0.05)
1.31229, 0.005, (0.15 0 0.05)
1.29495, 0.005, (0.15 0 0.05)
1.27769, 0.005, (0.15 0 0.05)
1.26052, 0.005, (0.15 0 0.05)
1.24342, 0.005, (0.15 0 0.05)
1.22642, 0.005, (0.15 0 0.05)
1.2095, 0.005, (0.15 0 0.05)
1.19269, 0.005, (0.15 0 0.05)
1.17597, 0.005, (0.15 0 0.05)
1.15935, 0.005, (0.15 0 0.05)
1.14285, 0.005, (0.15 0 0.05)
1.12645, 0.005, (0.15 0 0.05)
1.11018, 0.005, (0.15 0 0.05)
1.09403, 0.005, (0.15 0 0.05)
1.07801, 0.005, (0.15 0 0.05)
1.06212, 0.005, (0.15 0 0.05)
1.04637, 0.005, (0.15 0 0.05)
1.03078, 0.005, (0.15 0 0.05)
1.01533, 0.005, (0.15 0 0.05)
1.00005, 0.005, (0.15 0 0.05)
0.984937, 0.005, (0.15 0 0.05)
0.97, 0.005, (0.15 0 0.05)
0.955249, 0.005, (0.15 0 0.05)
0.940691, 0.005, (0.15 0 0.05)
0.926337, 0.005, (0.15 0 0.05)
0.912195, 0.005, (0.15 0 0.05)
0.898276, 0.005, (0.15 0 0.05)
0.88459, 0.005, (0.15 0 0.05)
0.871149, 0.005, (0.15 0 0.05)
0.857963, 0.005, (0.15 0 0.05)
0.845044, 0.005, (0.15 0 0.05)
0.832406, 0.005, (0.15 0 0.05)
0.820061, 0.005, (0.15 0 0.05)
0.808022, 0.005, (0.15 0 0.05)
0.796304, 0.005, (0.15 0 0.05)
0.78492, 0.005, (0.15 0 0.05)
0.773886, 0.005, (0.15 0 0.05)
0.763217, 0.005, (0.15 0 0.05)
0.752928, 0.005, (0.15 0 0.05)
0.743034, 0.005, (0.15 0 0.05)
[...]
0.195296, 0.00176777, (0.15 0 0.05)
0.191254, 0.00176777, (0.15 0 0.05)
0.189778, 0.00176777, (0.15 0 0.05)
0.187758, 0.00176777, (0.15 0 0.05)
0.18925, 0.00176777, (0.15 0 0.05)
0.18925, 0.00176777, (0.15 0 0.05)
0.189778, 0.00176777, (0.15 0 0.05)
0.191254, 0.00176777, (0.15 0 0.05)
0.194751, 0.00176777, (0.15 0 0.05)
0.196763, 0.00176777, (0.15 0 0.05)
0.19825, 0.00176777, (0.15 0 0.05)
0.196254, 0.00176777, (0.15 0 0.05)
0.196254, 0.00176777, (0.15 0 0.05)
0.196763, 0.00176777, (0.15 0 0.05)
0.194751, 0.00176777, (0.15 0 0.05)
0.191254, 0.00176777, (0.15 0 0.05)
0.18925, 0.00176777, (0.15 0 0.05)
0.189778, 0.00176777, (0.15 0 0.05)
0.187758, 0.00176777, (0.15 0 0.05)
0.18925, 0.00176777, (0.15 0 0.05)
0.191254, 0.00176777, (0.15 0 0.05)
0.189778, 0.00176777, (0.15 0 0.05)
0.194751, 0.00176777, (0.15 0 0.05)
0.196254, 0.00176777, (0.15 0 0.05)
0.196763, 0.00176777, (0.15 0 0.05)
0.19825, 0.00176777, (0.15 0 0.05)
0.196254, 0.00176777, (0.15 0 0.05)
0.194751, 0.00176777, (0.15 0 0.05)
0.196763, 0.00176777, (0.15 0 0.05)
0.192751, 0.00176777, (0.15 0 0.05)
0.192297, 0.00176777, (0.15 0 0.05)
0.190763, 0.00176777, (0.15 0 0.05)
0.194269, 0.00176777, (0.15 0 0.05)
0.190763, 0.00176777, (0.15 0 0.05)
0.194269, 0.00176777, (0.15 0 0.05)
0.192751, 0.00176777, (0.15 0 0.05)
0.191581, 0.00176777, (0.15 0 0.05)
0.189975, 0.00176777, (0.15 0 0.05)
0.193496, 0.00176777, (0.15 0 0.05)
0.191907, 0.00176777, (0.15 0 0.05)
0.191581, 0.00176777, (0.15 0 0.05)
0.189975, 0.00176777, (0.15 0 0.05)
0.193496, 0.00176777, (0.15 0 0.05)
0.191319, 0.00176777, (0.15 0 0.05)
0.191123, 0.00176777, (0.15 0 0.05)
0.189448, 0.00176777, (0.15 0 0.05)
0.192978, 0.00176777, (0.15 0 0.05)
0.191319, 0.00176777, (0.15 0 0.05)
0.189448, 0.00176777, (0.15 0 0.05)
0.192978, 0.00176777, (0.15 0 0.05)
0.189679, 0.00176777, (0.15 0 0.05)
0.187791, 0.00176777, (0.15 0 0.05)
0.186153, 0.00176777, (0.15 0 0.05)
0.188058, 0.00176777, (0.15 0 0.05)
0.187791, 0.00176777, (0.15 0 0.05)
0.188058, 0.00176777, (0.15 0 0.05)
0.189679, 0.00176777, (0.15 0 0.05)
0.193205, 0.00176777, (0.15 0 0.05)
0.194848, 0.00176777, (0.15 0 0.05)
0.196731, 0.00176777, (0.15 0 0.05)
0.195104, 0.00176777, (0.15 0 0.05)
0.194848, 0.00176777, (0.15 0 0.05)
0.195104, 0.00176777, (0.15 0 0.05)
0.193205, 0.00176777, (0.15 0 0.05)
0.189679, 0.00176777, (0.15 0 0.05)
0.188058, 0.00176777, (0.15 0 0.05)
0.187791, 0.00176777, (0.15 0 0.05)
0.186153, 0.00176777, (0.15 0 0.05)
0.189679, 0.00176777, (0.15 0 0.05)
0.187791, 0.00176777, (0.15 0 0.05)
0.188058, 0.00176777, (0.15 0 0.05)
0.193205, 0.00176777, (0.15 0 0.05)
0.195104, 0.00176777, (0.15 0 0.05)
0.194848, 0.00176777, (0.15 0 0.05)
0.196731, 0.00176777, (0.15 0 0.05)
0.193205, 0.00176777, (0.15 0 0.05)
0.194848, 0.00176777, (0.15 0 0.05)
0.195104, 0.00176777, (0.15 0 0.05)
0.191581, 0.00176777, (0.15 0 0.05)
0.191907, 0.00176777, (0.15 0 0.05)
0.189975, 0.00176777, (0.15 0 0.05)
0.193496, 0.00176777, (0.15 0 0.05)
0.189975, 0.00176777, (0.15 0 0.05)
0.193496, 0.00176777, (0.15 0 0.05)
0.191581, 0.00176777, (0.15 0 0.05)
0.186824, 0.00176777, (0.15 0 0.05)
0.18839, 0.00176777, (0.15 0 0.05)
0.188787, 0.00176777, (0.15 0 0.05)
0.190337, 0.00176777, (0.15 0 0.05)
0.186824, 0.00176777, (0.15 0 0.05)
0.18839, 0.00176777, (0.15 0 0.05)
0.188787, 0.00176777, (0.15 0 0.05)
0.183312, 0.00176777, (0.15 0 0.05)
0.1798, 0.00176777, (0.15 0 0.05)
0.181358, 0.00176777, (0.15 0 0.05)
0.181771, 0.00176777, (0.15 0 0.05)
0.181358, 0.00176777, (0.15 0 0.05)
0.183312, 0.00176777, (0.15 0 0.05)
0.181771, 0.00176777, (0.15 0 0.05)
0.184873, 0.00176777, (0.15 0 0.05)
0.182936, 0.00176777, (0.15 0 0.05)
0.184535, 0.00176777, (0.15 0 0.05)
0.186455, 0.00176777, (0.15 0 0.05)
0.182936, 0.00176777, (0.15 0 0.05)
0.186455, 0.00176777, (0.15 0 0.05)
0.184873, 0.00176777, (0.15 0 0.05)
0.185279, 0.00176777, (0.15 0 0.05)
0.183754, 0.00176777, (0.15 0 0.05)
0.18575, 0.00176777, (0.15 0 0.05)
0.187258, 0.00176777, (0.15 0 0.05)
0.187258, 0.00176777, (0.15 0 0.05)
0.183754, 0.00176777, (0.15 0 0.05)
0.185279, 0.00176777, (0.15 0 0.05)
0.184873, 0.00176777, (0.15 0 0.05)
0.186455, 0.00176777, (0.15 0 0.05)
0.182936, 0.00176777, (0.15 0 0.05)
0.184535, 0.00176777, (0.15 0 0.05)
0.182936, 0.00176777, (0.15 0 0.05)
0.184873, 0.00176777, (0.15 0 0.05)
0.186455, 0.00176777, (0.15 0 0.05)
0.185279, 0.00176777, (0.15 0 0.05)
0.187258, 0.00176777, (0.15 0 0.05)
0.183754, 0.00176777, (0.15 0 0.05)
0.18575, 0.00176777, (0.15 0 0.05)
0.185279, 0.00176777, (0.15 0 0.05)
0.187258, 0.00176777, (0.15 0 0.05)
0.183754, 0.00176777, (0.15 0 0.05)
0.186824, 0.00176777, (0.15 0 0.05)
0.190337, 0.00176777, (0.15 0 0.05)
0.18839, 0.00176777, (0.15 0 0.05)
0.188787, 0.00176777, (0.15 0 0.05)
0.18839, 0.00176777, (0.15 0 0.05)
0.188787, 0.00176777, (0.15 0 0.05)
0.186824, 0.00176777, (0.15 0 0.05)
0.197365, 0.00176777, (0.15 0 0.05)
0.195424, 0.00176777, (0.15 0 0.05)
0.195808, 0.00176777, (0.15 0 0.05)
0.193851, 0.00176777, (0.15 0 0.05)
0.197365, 0.00176777, (0.15 0 0.05)
0.195424, 0.00176777, (0.15 0 0.05)
0.195808, 0.00176777, (0.15 0 0.05)
0.200881, 0.00176777, (0.15 0 0.05)
0.204397, 0.00176777, (0.15 0 0.05)
0.202461, 0.00176777, (0.15 0 0.05)
0.202832, 0.00176777, (0.15 0 0.05)
0.202461, 0.00176777, (0.15 0 0.05)
0.200881, 0.00176777, (0.15 0 0.05)
0.202832, 0.00176777, (0.15 0 0.05)
0.198943, 0.00176777, (0.15 0 0.05)
0.200538, 0.00176777, (0.15 0 0.05)
0.198628, 0.00176777, (0.15 0 0.05)
0.197017, 0.00176777, (0.15 0 0.05)
0.200538, 0.00176777, (0.15 0 0.05)
0.197017, 0.00176777, (0.15 0 0.05)
0.198943, 0.00176777, (0.15 0 0.05)
0.199319, 0.00176777, (0.15 0 0.05)
0.201285, 0.00176777, (0.15 0 0.05)
0.199758, 0.00176777, (0.15 0 0.05)
0.197777, 0.00176777, (0.15 0 0.05)
0.197777, 0.00176777, (0.15 0 0.05)
0.201285, 0.00176777, (0.15 0 0.05)
0.199319, 0.00176777, (0.15 0 0.05)
0.198943, 0.00176777, (0.15 0 0.05)
0.197017, 0.00176777, (0.15 0 0.05)
0.200538, 0.00176777, (0.15 0 0.05)
0.198628, 0.00176777, (0.15 0 0.05)
0.200538, 0.00176777, (0.15 0 0.05)
0.198943, 0.00176777, (0.15 0 0.05)
0.197017, 0.00176777, (0.15 0 0.05)
0.199319, 0.00176777, (0.15 0 0.05)
0.197777, 0.00176777, (0.15 0 0.05)
0.201285, 0.00176777, (0.15 0 0.05)
0.199758, 0.00176777, (0.15 0 0.05)
0.199319, 0.00176777, (0.15 0 0.05)
0.197777, 0.00176777, (0.15 0 0.05)
0.201285, 0.00176777, (0.15 0 0.05)
0.197365, 0.00176777, (0.15 0 0.05)
0.193851, 0.00176777, (0.15 0 0.05)
0.195424, 0.00176777, (0.15 0 0.05)
0.195808, 0.00176777, (0.15 0 0.05)
0.195424, 0.00176777, (0.15 0 0.05)
0.195808, 0.00176777, (0.15 0 0.05)
0.197365, 0.00176777, (0.15 0 0.05)
0.192751, 0.00176777, (0.15 0 0.05)
0.190763, 0.00176777, (0.15 0 0.05)
0.194269, 0.00176777, (0.15 0 0.05)
0.192297, 0.00176777, (0.15 0 0.05)
0.192751, 0.00176777, (0.15 0 0.05)
0.190763, 0.00176777, (0.15 0 0.05)
0.194269, 0.00176777, (0.15 0 0.05)
0.19327, 0.00176777, (0.15 0 0.05)
0.193851, 0.00176777, (0.15 0 0.05)
0.191809, 0.00176777, (0.15 0 0.05)
0.195296, 0.00176777, (0.15 0 0.05)
0.19327, 0.00176777, (0.15 0 0.05)
0.191809, 0.00176777, (0.15 0 0.05)
0.195296, 0.00176777, (0.15 0 0.05)
0.191254, 0.00176777, (0.15 0 0.05)
0.189778, 0.00176777, (0.15 0 0.05)
0.187758, 0.00176777, (0.15 0 0.05)
0.18925, 0.00176777, (0.15 0 0.05)
0.18925, 0.00176777, (0.15 0 0.05)
0.189778, 0.00176777, (0.15 0 0.05)
0.191254, 0.00176777, (0.15 0 0.05)
0.194751, 0.00176777, (0.15 0 0.05)
0.196763, 0.00176777, (0.15 0 0.05)
0.19825, 0.00176777, (0.15 0 0.05)
0.196254, 0.00176777, (0.15 0 0.05)
0.196254, 0.00176777, (0.15 0 0.05)
0.196763, 0.00176777, (0.15 0 0.05)
0.194751, 0.00176777, (0.15 0 0.05)
0.191254, 0.00176777, (0.15 0 0.05)
0.18925, 0.00176777, (0.15 0 0.05)
0.189778, 0.00176777, (0.15 0 0.05)
0.187758, 0.00176777, (0.15 0 0.05)
0.191254, 0.00176777, (0.15 0 0.05)
0.18925, 0.00176777, (0.15 0 0.05)
0.189778, 0.00176777, (0.15 0 0.05)
0.194751, 0.00176777, (0.15 0 0.05)
0.196254, 0.00176777, (0.15 0 0.05)
0.196763, 0.00176777, (0.15 0 0.05)
0.19825, 0.00176777, (0.15 0 0.05)
0.194751, 0.00176777, (0.15 0 0.05)
0.196254, 0.00176777, (0.15 0 0.05)
0.196763, 0.00176777, (0.15 0 0.05)
0.192751, 0.00176777, (0.15 0 0.05)
0.192297, 0.00176777, (0.15 0 0.05)
0.190763, 0.00176777, (0.15 0 0.05)
0.194269, 0.00176777, (0.15 0 0.05)
0.190763, 0.00176777, (0.15 0 0.05)
0.194269, 0.00176777, (0.15 0 0.05)
0.192751, 0.00176777, (0.15 0 0.05)
0.17508, 0.00176777, (0.15 0 0.05)
0.176467, 0.00176777, (0.15 0 0.05)
0.177174, 0.00176777, (0.15 0 0.05)
0.178544, 0.00176777, (0.15 0 0.05)
0.176467, 0.00176777, (0.15 0 0.05)
0.177174, 0.00176777, (0.15 0 0.05)
0.17508, 0.00176777, (0.15 0 0.05)
0.171619, 0.00176777, (0.15 0 0.05)
0.168161, 0.00176777, (0.15 0 0.05)
0.169531, 0.00176777, (0.15 0 0.05)
0.170266, 0.00176777, (0.15 0 0.05)
0.170266, 0.00176777, (0.15 0 0.05)
0.169531, 0.00176777, (0.15 0 0.05)
0.171619, 0.00176777, (0.15 0 0.05)
0.172997, 0.00176777, (0.15 0 0.05)
0.170926, 0.00176777, (0.15 0 0.05)
0.172346, 0.00176777, (0.15 0 0.05)
0.174401, 0.00176777, (0.15 0 0.05)
0.174401, 0.00176777, (0.15 0 0.05)
0.170926, 0.00176777, (0.15 0 0.05)
0.172997, 0.00176777, (0.15 0 0.05)
0.173719, 0.00176777, (0.15 0 0.05)
0.172382, 0.00176777, (0.15 0 0.05)
0.174508, 0.00176777, (0.15 0 0.05)
0.175828, 0.00176777, (0.15 0 0.05)
0.172382, 0.00176777, (0.15 0 0.05)
0.175828, 0.00176777, (0.15 0 0.05)
0.173719, 0.00176777, (0.15 0 0.05)
0.172997, 0.00176777, (0.15 0 0.05)
0.174401, 0.00176777, (0.15 0 0.05)
0.170926, 0.00176777, (0.15 0 0.05)
0.172346, 0.00176777, (0.15 0 0.05)
0.174401, 0.00176777, (0.15 0 0.05)
0.170926, 0.00176777, (0.15 0 0.05)
0.172997, 0.00176777, (0.15 0 0.05)
0.173719, 0.00176777, (0.15 0 0.05)
0.175828, 0.00176777, (0.15 0 0.05)
0.172382, 0.00176777, (0.15 0 0.05)
0.174508, 0.00176777, (0.15 0 0.05)
0.172382, 0.00176777, (0.15 0 0.05)
0.175828, 0.00176777, (0.15 0 0.05)
0.173719, 0.00176777, (0.15 0 0.05)
0.17508, 0.00176777, (0.15 0 0.05)
0.178544, 0.00176777, (0.15 0 0.05)
0.176467, 0.00176777, (0.15 0 0.05)
0.177174, 0.00176777, (0.15 0 0.05)
0.176467, 0.00176777, (0.15 0 0.05)
0.177174, 0.00176777, (0.15 0 0.05)
0.17508, 0.00176777, (0.15 0 0.05)
0.185481, 0.00176777, (0.15 0 0.05)
0.183414, 0.00176777, (0.15 0 0.05)
0.184094, 0.00176777, (0.15 0 0.05)
0.182011, 0.00176777, (0.15 0 0.05)
0.183414, 0.00176777, (0.15 0 0.05)
0.184094, 0.00176777, (0.15 0 0.05)
0.185481, 0.00176777, (0.15 0 0.05)
0.186891, 0.00176777, (0.15 0 0.05)
0.188323, 0.00176777, (0.15 0 0.05)
0.186288, 0.00176777, (0.15 0 0.05)
0.184839, 0.00176777, (0.15 0 0.05)
0.184839, 0.00176777, (0.15 0 0.05)
0.188323, 0.00176777, (0.15 0 0.05)
0.186891, 0.00176777, (0.15 0 0.05)
0.186891, 0.00176777, (0.15 0 0.05)
0.184839, 0.00176777, (0.15 0 0.05)
0.188323, 0.00176777, (0.15 0 0.05)
0.186288, 0.00176777, (0.15 0 0.05)
0.184839, 0.00176777, (0.15 0 0.05)
0.188323, 0.00176777, (0.15 0 0.05)
0.186891, 0.00176777, (0.15 0 0.05)
0.185481, 0.00176777, (0.15 0 0.05)
0.182011, 0.00176777, (0.15 0 0.05)
0.183414, 0.00176777, (0.15 0 0.05)
0.184094, 0.00176777, (0.15 0 0.05)
0.183414, 0.00176777, (0.15 0 0.05)
0.184094, 0.00176777, (0.15 0 0.05)
0.185481, 0.00176777, (0.15 0 0.05)
0.181392, 0.00176777, (0.15 0 0.05)
0.179278, 0.00176777, (0.15 0 0.05)
0.182731, 0.00176777, (0.15 0 0.05)
0.180633, 0.00176777, (0.15 0 0.05)
0.179278, 0.00176777, (0.15 0 0.05)
0.182731, 0.00176777, (0.15 0 0.05)
0.181392, 0.00176777, (0.15 0 0.05)
0.181392, 0.00176777, (0.15 0 0.05)
0.180633, 0.00176777, (0.15 0 0.05)
0.179278, 0.00176777, (0.15 0 0.05)
0.182731, 0.00176777, (0.15 0 0.05)
0.179278, 0.00176777, (0.15 0 0.05)
0.182731, 0.00176777, (0.15 0 0.05)
0.181392, 0.00176777, (0.15 0 0.05)
0.179313, 0.00176777, (0.15 0 0.05)
0.177878, 0.00176777, (0.15 0 0.05)
0.181358, 0.00176777, (0.15 0 0.05)
0.179939, 0.00176777, (0.15 0 0.05)
0.179313, 0.00176777, (0.15 0 0.05)
0.177878, 0.00176777, (0.15 0 0.05)
0.181358, 0.00176777, (0.15 0 0.05)
0.178754, 0.00176777, (0.15 0 0.05)
0.178264, 0.00176777, (0.15 0 0.05)
0.17675, 0.00176777, (0.15 0 0.05)
0.180252, 0.00176777, (0.15 0 0.05)
0.178754, 0.00176777, (0.15 0 0.05)
0.17675, 0.00176777, (0.15 0 0.05)
0.180252, 0.00176777, (0.15 0 0.05)
0.17728, 0.00176777, (0.15 0 0.05)
0.175259, 0.00176777, (0.15 0 0.05)
0.17379, 0.00176777, (0.15 0 0.05)
0.175828, 0.00176777, (0.15 0 0.05)
0.175259, 0.00176777, (0.15 0 0.05)
0.175828, 0.00176777, (0.15 0 0.05)
0.17728, 0.00176777, (0.15 0 0.05)
0.180771, 0.00176777, (0.15 0 0.05)
0.182252, 0.00176777, (0.15 0 0.05)
0.184264, 0.00176777, (0.15 0 0.05)
0.182799, 0.00176777, (0.15 0 0.05)
0.182252, 0.00176777, (0.15 0 0.05)
0.182799, 0.00176777, (0.15 0 0.05)
0.180771, 0.00176777, (0.15 0 0.05)
0.17728, 0.00176777, (0.15 0 0.05)
0.175828, 0.00176777, (0.15 0 0.05)
0.175259, 0.00176777, (0.15 0 0.05)
0.17379, 0.00176777, (0.15 0 0.05)
0.17728, 0.00176777, (0.15 0 0.05)
0.175259, 0.00176777, (0.15 0 0.05)
0.175828, 0.00176777, (0.15 0 0.05)
0.180771, 0.00176777, (0.15 0 0.05)
0.182799, 0.00176777, (0.15 0 0.05)
0.182252, 0.00176777, (0.15 0 0.05)
0.184264, 0.00176777, (0.15 0 0.05)
0.180771, 0.00176777, (0.15 0 0.05)
0.182252, 0.00176777, (0.15 0 0.05)
0.182799, 0.00176777, (0.15 0 0.05)
0.179313, 0.00176777, (0.15 0 0.05)
0.179939, 0.00176777, (0.15 0 0.05)
0.177878, 0.00176777, (0.15 0 0.05)
0.181358, 0.00176777, (0.15 0 0.05)
0.177878, 0.00176777, (0.15 0 0.05)
0.181358, 0.00176777, (0.15 0 0.05)
0.179313, 0.00176777, (0.15 0 0.05)
0.17508, 0.00176777, (0.15 0 0.05)
0.176467, 0.00176777, (0.15 0 0.05)
0.177174, 0.00176777, (0.15 0 0.05)
0.178544, 0.00176777, (0.15 0 0.05)
0.17508, 0.00176777, (0.15 0 0.05)
0.176467, 0.00176777, (0.15 0 0.05)
0.177174, 0.00176777, (0.15 0 0.05)
0.171619, 0.00176777, (0.15 0 0.05)
0.168161, 0.00176777, (0.15 0 0.05)
0.169531, 0.00176777, (0.15 0 0.05)
0.170266, 0.00176777, (0.15 0 0.05)
0.169531, 0.00176777, (0.15 0 0.05)
0.171619, 0.00176777, (0.15 0 0.05)
0.170266, 0.00176777, (0.15 0 0.05)
0.172997, 0.00176777, (0.15 0 0.05)
0.170926, 0.00176777, (0.15 0 0.05)
0.172346, 0.00176777, (0.15 0 0.05)
0.174401, 0.00176777, (0.15 0 0.05)
0.170926, 0.00176777, (0.15 0 0.05)
0.174401, 0.00176777, (0.15 0 0.05)
0.172997, 0.00176777, (0.15 0 0.05)
0.173719, 0.00176777, (0.15 0 0.05)
0.172382, 0.00176777, (0.15 0 0.05)
0.174508, 0.00176777, (0.15 0 0.05)
0.175828, 0.00176777, (0.15 0 0.05)
0.175828, 0.00176777, (0.15 0 0.05)
0.172382, 0.00176777, (0.15 0 0.05)
0.173719, 0.00176777, (0.15 0 0.05)
0.172997, 0.00176777, (0.15 0 0.05)
0.174401, 0.00176777, (0.15 0 0.05)
0.170926, 0.00176777, (0.15 0 0.05)
0.172346, 0.00176777, (0.15 0 0.05)
0.170926, 0.00176777, (0.15 0 0.05)
0.172997, 0.00176777, (0.15 0 0.05)
0.174401, 0.00176777, (0.15 0 0.05)
0.173719, 0.00176777, (0.15 0 0.05)
0.175828, 0.00176777, (0.15 0 0.05)
0.172382, 0.00176777, (0.15 0 0.05)
0.174508, 0.00176777, (0.15 0 0.05)
0.173719, 0.00176777, (0.15 0 0.05)
0.175828, 0.00176777, (0.15 0 0.05)
0.172382, 0.00176777, (0.15 0 0.05)
0.17508, 0.00176777, (0.15 0 0.05)
0.178544, 0.00176777, (0.15 0 0.05)
0.176467, 0.00176777, (0.15 0 0.05)
0.177174, 0.00176777, (0.15 0 0.05)
0.176467, 0.00176777, (0.15 0 0.05)
0.177174, 0.00176777, (0.15 0 0.05)
0.17508, 0.00176777, (0.15 0 0.05)
0.185481, 0.00176777, (0.15 0 0.05)
0.183414, 0.00176777, (0.15 0 0.05)
0.184094, 0.00176777, (0.15 0 0.05)
0.182011, 0.00176777, (0.15 0 0.05)
0.185481, 0.00176777, (0.15 0 0.05)
0.183414, 0.00176777, (0.15 0 0.05)
0.184094, 0.00176777, (0.15 0 0.05)
0.186891, 0.00176777, (0.15 0 0.05)
0.188323, 0.00176777, (0.15 0 0.05)
0.186288, 0.00176777, (0.15 0 0.05)
0.184839, 0.00176777, (0.15 0 0.05)
0.188323, 0.00176777, (0.15 0 0.05)
0.184839, 0.00176777, (0.15 0 0.05)
0.186891, 0.00176777, (0.15 0 0.05)
0.186891, 0.00176777, (0.15 0 0.05)
0.184839, 0.00176777, (0.15 0 0.05)
0.188323, 0.00176777, (0.15 0 0.05)
0.186288, 0.00176777, (0.15 0 0.05)
0.188323, 0.00176777, (0.15 0 0.05)
0.186891, 0.00176777, (0.15 0 0.05)
0.184839, 0.00176777, (0.15 0 0.05)
0.185481, 0.00176777, (0.15 0 0.05)
0.182011, 0.00176777, (0.15 0 0.05)
0.183414, 0.00176777, (0.15 0 0.05)
0.184094, 0.00176777, (0.15 0 0.05)
0.183414, 0.00176777, (0.15 0 0.05)
0.184094, 0.00176777, (0.15 0 0.05)
0.185481, 0.00176777, (0.15 0 0.05)
0.181392, 0.00176777, (0.15 0 0.05)
0.179278, 0.00176777, (0.15 0 0.05)
0.182731, 0.00176777, (0.15 0 0.05)
0.180633, 0.00176777, (0.15 0 0.05)
0.181392, 0.00176777, (0.15 0 0.05)
0.179278, 0.00176777, (0.15 0 0.05)
0.182731, 0.00176777, (0.15 0 0.05)
0.181392, 0.00176777, (0.15 0 0.05)
0.180633, 0.00176777, (0.15 0 0.05)
0.179278, 0.00176777, (0.15 0 0.05)
0.182731, 0.00176777, (0.15 0 0.05)
0.179278, 0.00176777, (0.15 0 0.05)
0.182731, 0.00176777, (0.15 0 0.05)
0.181392, 0.00176777, (0.15 0 0.05)
0.161565, 0.00176777, (0.15 0 0.05)
0.158203, 0.00176777, (0.15 0 0.05)
0.159344, 0.00176777, (0.15 0 0.05)
0.160439, 0.00176777, (0.15 0 0.05)
0.160439, 0.00176777, (0.15 0 0.05)
0.159344, 0.00176777, (0.15 0 0.05)
0.161565, 0.00176777, (0.15 0 0.05)
0.162721, 0.00176777, (0.15 0 0.05)
0.160517, 0.00176777, (0.15 0 0.05)
0.161719, 0.00176777, (0.15 0 0.05)
0.163907, 0.00176777, (0.15 0 0.05)
0.163907, 0.00176777, (0.15 0 0.05)
0.160517, 0.00176777, (0.15 0 0.05)
0.162721, 0.00176777, (0.15 0 0.05)
0.162721, 0.00176777, (0.15 0 0.05)
0.163907, 0.00176777, (0.15 0 0.05)
0.160517, 0.00176777, (0.15 0 0.05)
0.161719, 0.00176777, (0.15 0 0.05)
0.163907, 0.00176777, (0.15 0 0.05)
0.160517, 0.00176777, (0.15 0 0.05)
0.162721, 0.00176777, (0.15 0 0.05)
0.168532, 0.00176777, (0.15 0 0.05)
0.167304, 0.00176777, (0.15 0 0.05)
0.170706, 0.00176777, (0.15 0 0.05)
0.169494, 0.00176777, (0.15 0 0.05)
0.168532, 0.00176777, (0.15 0 0.05)
0.167304, 0.00176777, (0.15 0 0.05)
0.170706, 0.00176777, (0.15 0 0.05)
0.16764, 0.00176777, (0.15 0 0.05)
0.166818, 0.00176777, (0.15 0 0.05)
0.165501, 0.00176777, (0.15 0 0.05)
0.16894, 0.00176777, (0.15 0 0.05)
0.16764, 0.00176777, (0.15 0 0.05)
0.165501, 0.00176777, (0.15 0 0.05)
0.16894, 0.00176777, (0.15 0 0.05)
0.166367, 0.00176777, (0.15 0 0.05)
0.164212, 0.00176777, (0.15 0 0.05)
0.162951, 0.00176777, (0.15 0 0.05)
0.165123, 0.00176777, (0.15 0 0.05)
0.164212, 0.00176777, (0.15 0 0.05)
0.165123, 0.00176777, (0.15 0 0.05)
0.166367, 0.00176777, (0.15 0 0.05)
0.169788, 0.00176777, (0.15 0 0.05)
0.171072, 0.00176777, (0.15 0 0.05)
0.173214, 0.00176777, (0.15 0 0.05)
0.171947, 0.00176777, (0.15 0 0.05)
0.171072, 0.00176777, (0.15 0 0.05)
0.171947, 0.00176777, (0.15 0 0.05)
0.169788, 0.00176777, (0.15 0 0.05)
0.166367, 0.00176777, (0.15 0 0.05)
0.165123, 0.00176777, (0.15 0 0.05)
0.164212, 0.00176777, (0.15 0 0.05)
0.162951, 0.00176777, (0.15 0 0.05)
0.166367, 0.00176777, (0.15 0 0.05)
0.164212, 0.00176777, (0.15 0 0.05)
0.165123, 0.00176777, (0.15 0 0.05)
0.169788, 0.00176777, (0.15 0 0.05)
0.171947, 0.00176777, (0.15 0 0.05)
0.171072, 0.00176777, (0.15 0 0.05)
0.173214, 0.00176777, (0.15 0 0.05)
0.169788, 0.00176777, (0.15 0 0.05)
0.171072, 0.00176777, (0.15 0 0.05)
0.171947, 0.00176777, (0.15 0 0.05)
0.168532, 0.00176777, (0.15 0 0.05)
0.169494, 0.00176777, (0.15 0 0.05)
0.167304, 0.00176777, (0.15 0 0.05)
0.170706, 0.00176777, (0.15 0 0.05)
0.167304, 0.00176777, (0.15 0 0.05)
0.170706, 0.00176777, (0.15 0 0.05)
0.168532, 0.00176777, (0.15 0 0.05)
0.161565, 0.00176777, (0.15 0 0.05)
0.158203, 0.00176777, (0.15 0 0.05)
0.159344, 0.00176777, (0.15 0 0.05)
0.160439, 0.00176777, (0.15 0 0.05)
0.159344, 0.00176777, (0.15 0 0.05)
0.161565, 0.00176777, (0.15 0 0.05)
0.160439, 0.00176777, (0.15 0 0.05)
0.162721, 0.00176777, (0.15 0 0.05)
0.160517, 0.00176777, (0.15 0 0.05)
0.161719, 0.00176777, (0.15 0 0.05)
0.163907, 0.00176777, (0.15 0 0.05)
0.160517, 0.00176777, (0.15 0 0.05)
0.163907, 0.00176777, (0.15 0 0.05)
0.162721, 0.00176777, (0.15 0 0.05)
0.162721, 0.00176777, (0.15 0 0.05)
0.163907, 0.00176777, (0.15 0 0.05)
0.160517, 0.00176777, (0.15 0 0.05)
0.161719, 0.00176777, (0.15 0 0.05)
0.160517, 0.00176777, (0.15 0 0.05)
0.162721, 0.00176777, (0.15 0 0.05)
0.163907, 0.00176777, (0.15 0 0.05)
IBM: Writing Lagrangian points of object 1
ExecutionTime = 1.69 s  ClockTime = 2 s

End

